*SOIL-PLANT-ATMOSPHERE MODULE OUTPUT FILE

*DSSAT Cropping System Model Ver. 4.7.5.008 -release  JAN 15, 2021 21:49:57

*RUN   1        : ERiMA DCC1                MZCER047 ETMZpolo    1
 MODEL          : MZCER047 - Maize
 EXPERIMENT     : ETMZpolo SN MELKSSAL
 DATA PATH      : C:\Users\kpodo\Documents\GitHub\ET_DSS_hist_Eunjin\TEST\
 TREATMENT  1   : ERiMA DCC1                MZCER047
  
!                                                                                                                                                                                        Soil evaporation (mm/d) by soil depth (cm):
!                                                                                                                                                                                        0-5    5-15   15-20   20-35   35-50   50-65   65-81   81-97  97-118 118-200
@YEAR DOY   DAS   SRAA  TMAXA  TMINA    REFA    EOAA    EOPA    EOSA    KCAA    KCBA    KEAA    ETAA    EPAA    ESAA    EFAA    EMAA    EOAC    ETAC    EPAC    ESAC    EFAC    EMAC    ES1D    ES2D    ES3D    ES4D    ES5D    ES6D    ES7D    ES8D    ES9D   ES10D   TRWUD
 1991 165     1  22.00  31.20  17.20 -99.000   5.992   0.000   5.992 -99.000 -99.000 -99.000   1.007   0.000   1.007   0.000   0.000    5.99    1.01    0.00    1.01    0.00    0.00   0.824   0.105   0.017   0.022   0.015   0.008   0.005   0.003   0.003   0.006   0.000
 1991 166     2  22.80  30.90  16.50 -99.000   6.133   0.000   6.133 -99.000 -99.000 -99.000   0.932   0.000   0.932   0.000   0.000   12.12    1.94    0.00    1.94    0.00    0.00   0.749   0.104   0.017   0.022   0.015   0.008   0.005   0.003   0.003   0.006   0.000
 1991 167     3  25.50  30.20  15.50 -99.000   6.730   0.000   6.730 -99.000 -99.000 -99.000   0.863   0.000   0.863   0.000   0.000   18.86    2.80    0.00    2.80    0.00    0.00   0.681   0.104   0.017   0.021   0.015   0.008   0.005   0.003   0.003   0.006   0.000
 1991 168     4  27.40  31.10  14.60 -99.000   7.232   0.000   7.232 -99.000 -99.000 -99.000   0.800   0.000   0.800   0.000   0.000   26.09    3.60    0.00    3.60    0.00    0.00   0.619   0.103   0.017   0.021   0.015   0.008   0.005   0.003   0.003   0.006   0.000
 1991 169     5  23.50  32.40  15.20 -99.000   6.301   0.000   6.301 -99.000 -99.000 -99.000   0.743   0.000   0.743   0.000   0.000   32.39    4.35    0.00    4.35    0.00    0.00   0.563   0.102   0.017   0.021   0.015   0.008   0.005   0.003   0.003   0.006   0.000
 1991 170     6  20.40  29.90  14.00 -99.000   5.256   0.000   5.256 -99.000 -99.000 -99.000   0.691   0.000   0.691   0.000   0.000   37.64    5.04    0.00    5.04    0.00    0.00   0.512   0.102   0.017   0.021   0.015   0.008   0.005   0.003   0.003   0.006   0.000
 1991 171     7  23.40  24.90  16.30 -99.000   5.776   0.000   5.776 -99.000 -99.000 -99.000   0.644   0.000   0.644   0.000   0.000   43.42    5.68    0.00    5.68    0.00    0.00   0.465   0.101   0.017   0.021   0.015   0.008   0.005   0.003   0.003   0.006   0.000
 1991 172     8  20.70  28.30  16.40 -99.000   5.306   0.011   5.295 -99.000 -99.000 -99.000   0.612   0.011   0.601   0.000   0.000   48.73    6.29    0.01    6.28    0.00    0.00   0.423   0.101   0.017   0.021   0.015   0.008   0.005   0.003   0.003   0.006   0.001
 1991 173     9  19.20  28.00  16.40 -99.000   4.893   0.021   4.872 -99.000 -99.000 -99.000   0.583   0.021   0.562   0.000   0.000   53.62    6.88    0.03    6.84    0.00    0.00   0.384   0.100   0.017   0.021   0.015   0.008   0.005   0.003   0.003   0.006   0.002
 1991 174    10  19.90  30.30  15.40 -99.000   5.155   0.035   5.119 -99.000 -99.000 -99.000   0.561   0.035   0.526   0.000   0.000   58.77    7.44    0.07    7.37    0.00    0.00   0.349   0.099   0.017   0.021   0.015   0.008   0.005   0.003   0.003   0.006   0.004
 1991 175    11  19.00  29.90  13.80 -99.000   4.830   0.047   4.782 -99.000 -99.000 -99.000   0.541   0.047   0.494   0.000   0.000   63.60    7.98    0.11    7.86    0.00    0.00   0.318   0.098   0.017   0.021   0.015   0.008   0.005   0.003   0.003   0.006   0.005
 1991 176    12  21.60  31.40  15.90 -99.000   5.657   0.108   5.549 -99.000 -99.000 -99.000   0.571   0.108   0.464   0.000   0.000   69.26    8.55    0.22    8.33    0.00    0.00   0.289   0.098   0.017   0.021   0.015   0.008   0.005   0.003   0.003   0.006   0.011
 1991 177    13  19.70  23.10  15.60 -99.000   4.661   0.139   4.521 -99.000 -99.000 -99.000   0.575   0.139   0.437   0.000   0.000   73.92    9.13    0.36    8.76    0.00    0.00   0.262   0.097   0.017   0.021   0.015   0.008   0.005   0.003   0.003   0.006   0.014
 1991 178    14  18.10  29.10  13.90 -99.000   4.526   0.171   4.354 -99.000 -99.000 -99.000   0.582   0.171   0.411   0.000   0.000   78.45    9.71    0.53    9.18    0.00    0.00   0.239   0.095   0.017   0.021   0.015   0.008   0.005   0.003   0.003   0.006   0.017
 1991 179    15  22.10  28.90  14.20 -99.000   5.513   0.261   5.251 -99.000 -99.000 -99.000   0.939   0.187   0.752   0.000   0.000   83.96   10.65    0.72    9.93    0.00    0.00   0.581   0.094   0.017   0.021   0.015   0.008   0.005   0.003   0.003   0.006   0.019
 1991 180    16  20.80  24.40  16.30 -99.000   5.178   0.279   4.897 -99.000 -99.000 -99.000   1.340   0.279   1.062   0.000   0.000   89.14   11.99    1.00   10.99    0.00    0.00   0.892   0.093   0.016   0.021   0.015   0.008   0.005   0.003   0.003   0.006   0.028
 1991 181    17  23.00  24.90  15.80 -99.000   5.695   0.388   5.304 -99.000 -99.000 -99.000   5.693   0.388   5.304   0.000   0.000   94.83   17.68    1.39   16.29    0.00    0.00   1.004   0.607   0.199   0.464   0.522   0.423   0.361   0.314   0.354   1.056   0.039
 1991 182    18  19.80  26.60  15.20 -99.000   5.047   0.402   4.643 -99.000 -99.000 -99.000   5.045   0.402   4.643   0.000   0.000   99.88   22.73    1.79   20.94    0.00    0.00   0.885   0.573   0.168   0.398   0.449   0.365   0.312   0.272   0.306   0.915   0.040
 1991 183    19  18.80  27.20  15.80 -99.000   4.791   0.466   4.322 -99.000 -99.000 -99.000   1.573   0.466   1.107   0.000   0.000  104.67   24.30    2.25   22.04    0.00    0.00   0.924   0.108   0.015   0.021   0.014   0.008   0.005   0.003   0.003   0.006   0.047
 1991 184    20  21.70  27.00  16.30 -99.000   5.494   0.644   4.846 -99.000 -99.000 -99.000   5.491   0.644   4.846   0.000   0.000  110.17   29.79    2.90   26.89    0.00    0.00   0.941   0.621   0.178   0.406   0.461   0.376   0.321   0.280   0.316   0.946   0.064
 1991 185    21  19.40  24.10  16.70 -99.000   4.817   0.670   4.143 -99.000 -99.000 -99.000   4.814   0.670   4.143   0.000   0.000  114.98   34.60    3.57   31.03    0.00    0.00   0.892   0.584   0.182   0.342   0.364   0.298   0.255   0.223   0.251   0.753   0.067
 1991 186    22  16.20  26.40  16.30 -99.000   4.118   0.658   3.456 -99.000 -99.000 -99.000   4.114   0.658   3.456   0.000   0.000  119.10   38.72    4.23   34.49    0.00    0.00   0.654   0.484   0.164   0.333   0.312   0.252   0.216   0.189   0.213   0.640   0.066
 1991 187    23  18.00  26.60  16.10 -99.000   4.513   0.828   3.680 -99.000 -99.000 -99.000   4.508   0.828   3.680   0.000   0.000  123.61   43.23    5.06   38.17    0.00    0.00   0.649   0.495   0.168   0.387   0.344   0.273   0.234   0.205   0.231   0.694   0.083
 1991 188    24  21.00  27.90  15.80 -99.000   5.284   1.125   4.153 -99.000 -99.000 -99.000   2.217   1.125   1.092   0.000   0.000  128.90   45.44    6.18   39.26    0.00    0.00   0.889   0.119   0.020   0.026   0.014   0.008   0.005   0.003   0.003   0.005   0.113
 1991 189    25  15.00  25.80  15.90 -99.000   3.650   0.894   2.751 -99.000 -99.000 -99.000   1.875   0.894   0.981   0.000   0.000  132.55   47.32    7.07   40.24    0.00    0.00   0.782   0.115   0.019   0.026   0.014   0.008   0.005   0.003   0.003   0.005   0.089
 1991 190    26  18.60  26.60  16.70 -99.000   4.561   1.252   3.302 -99.000 -99.000 -99.000   4.554   1.252   3.302   0.000   0.000  137.11   51.87    8.33   43.55    0.00    0.00   0.594   0.462   0.161   0.345   0.308   0.240   0.204   0.179   0.202   0.607   0.125
 1991 191    27  20.70  24.90  15.70 -99.000   5.015   1.544   3.462 -99.000 -99.000 -99.000   5.006   1.544   3.462   0.000   0.000  142.12   56.88    9.87   47.01    0.00    0.00   0.656   0.474   0.163   0.357   0.321   0.254   0.215   0.188   0.210   0.625   0.154
 1991 192    28  15.20  25.20  15.80 -99.000   3.641   1.234   2.400 -99.000 -99.000 -99.000   3.634   1.234   2.400   0.000   0.000  145.77   60.51   11.10   49.41    0.00    0.00   0.472   0.335   0.118   0.243   0.218   0.175   0.148   0.129   0.142   0.420   0.123
 1991 193    29  21.20  25.40  15.00 -99.000   5.078   1.876   3.191 -99.000 -99.000 -99.000   5.067   1.876   3.191   0.000   0.000  150.84   65.58   12.98   52.60    0.00    0.00   0.597   0.435   0.151   0.328   0.294   0.238   0.202   0.175   0.195   0.577   0.188
 1991 194    30  19.80  26.00  15.90 -99.000   4.740   1.908   2.821 -99.000 -99.000 -99.000   4.729   1.908   2.821   0.000   0.000  155.58   70.31   14.89   55.42    0.00    0.00   0.550   0.391   0.139   0.285   0.255   0.205   0.174   0.151   0.169   0.503   0.191
 1991 195    31  19.70  23.20  15.30 -99.000   4.545   1.988   2.546 -99.000 -99.000 -99.000   4.534   1.988   2.546   0.000   0.000  160.13   74.84   16.88   57.97    0.00    0.00   0.472   0.344   0.120   0.261   0.235   0.189   0.161   0.140   0.157   0.467   0.199
 1991 196    32  19.80  24.40  14.90 -99.000   4.564   2.126   2.426 -99.000 -99.000 -99.000   4.551   2.126   2.426   0.000   0.000  164.69   79.39   19.00   60.39    0.00    0.00   0.422   0.318   0.109   0.252   0.230   0.185   0.158   0.137   0.154   0.460   0.213
 1991 197    33  19.50  22.90  16.10 -99.000   4.423   2.190   2.220 -99.000 -99.000 -99.000   3.282   2.190   1.092   0.000   0.000  169.11   82.67   21.19   61.48    0.00    0.00   0.892   0.116   0.019   0.026   0.015   0.008   0.005   0.003   0.003   0.006   0.219
 1991 198    34  21.70  22.60  15.40 -99.000   4.837   2.534   2.288 -99.000 -99.000 -99.000   3.500   2.534   0.966   0.000   0.000  173.95   86.17   23.73   62.45    0.00    0.00   0.772   0.110   0.019   0.026   0.015   0.008   0.005   0.003   0.003   0.006   0.253
 1991 199    35  15.30  24.40  14.90 -99.000   3.447   1.913   1.523 -99.000 -99.000 -99.000   3.436   1.913   1.523   0.000   0.000  177.40   89.61   25.64   63.97    0.00    0.00   0.272   0.200   0.068   0.155   0.143   0.115   0.098   0.086   0.096   0.288   0.191
 1991 200    36  22.40  24.60  14.20 -99.000   5.075   2.973   2.085 -99.000 -99.000 -99.000   5.058   2.973   2.085   0.000   0.000  182.47   94.67   28.61   66.06    0.00    0.00   0.397   0.278   0.094   0.210   0.192   0.154   0.132   0.115   0.129   0.385   0.297
 1991 201    37  19.20  25.30  14.40 -99.000   4.345   2.667   1.663 -99.000 -99.000 -99.000   4.330   2.667   1.663   0.000   0.000  186.82   99.00   31.28   67.72    0.00    0.00   0.293   0.216   0.073   0.170   0.157   0.127   0.108   0.094   0.106   0.317   0.267
 1991 202    38  15.90  25.60  15.00 -99.000   3.605   2.310   1.282 -99.000 -99.000 -99.000   3.413   2.310   1.103   0.000   0.000  190.42  102.41   33.59   68.82    0.00    0.00   0.905   0.114   0.019   0.025   0.014   0.008   0.005   0.003   0.003   0.006   0.231
 1991 203    39  17.50  24.90  15.40 -99.000   3.922   2.616   1.291 -99.000 -99.000 -99.000   3.593   2.616   0.977   0.000   0.000  194.35  106.00   36.20   69.80    0.00    0.00   0.786   0.109   0.018   0.025   0.014   0.008   0.005   0.003   0.003   0.006   0.262
 1991 204    40  19.70  25.50  15.40 -99.000   4.423   3.055   1.350 -99.000 -99.000 -99.000   3.925   3.055   0.870   0.000   0.000  198.77  109.93   39.26   70.67    0.00    0.00   0.687   0.102   0.017   0.024   0.014   0.008   0.005   0.003   0.003   0.006   0.306
 1991 205    41  21.40  27.00  15.80 -99.000   4.883   3.485   1.379 -99.000 -99.000 -99.000   4.275   3.485   0.790   0.000   0.000  203.65  114.20   42.74   71.46    0.00    0.00   0.618   0.094   0.016   0.023   0.014   0.008   0.005   0.003   0.003   0.006   0.348
 1991 206    42  22.00  26.40  17.80 -99.000   5.042   3.712   1.310 -99.000 -99.000 -99.000   4.415   3.693   0.722   0.000   0.000  208.70  118.62   46.44   72.18    0.00    0.00   0.558   0.089   0.015   0.022   0.014   0.008   0.005   0.003   0.003   0.006   0.369
 1991 207    43  21.40  28.10  17.60 -99.000   4.975   3.771   1.184 -99.000 -99.000 -99.000   4.866   3.771   1.095   0.000   0.000  213.67  123.49   50.21   73.28    0.00    0.00   0.913   0.107   0.016   0.020   0.014   0.008   0.005   0.003   0.003   0.006   0.377
 1991 208    44  14.00  22.70  15.40 -99.000   3.017   2.349   0.655 -99.000 -99.000 -99.000   3.003   2.349   0.655   0.000   0.000  216.69  126.49   52.56   73.93    0.00    0.00   0.146   0.092   0.029   0.046   0.058   0.048   0.041   0.036   0.040   0.120   0.235
 1991 209    45  19.30  24.40  14.80 -99.000   4.217   3.343   0.854 -99.000 -99.000 -99.000   4.197   3.343   0.854   0.000   0.000  220.90  130.69   55.90   74.78    0.00    0.00   0.166   0.117   0.039   0.069   0.078   0.065   0.055   0.048   0.054   0.162   0.334
 1991 210    46  19.80  25.40  15.10 -99.000   4.367   3.524   0.822 -99.000 -99.000 -99.000   4.347   3.524   0.822   0.000   0.000  225.27  135.03   59.43   75.61    0.00    0.00   0.149   0.110   0.037   0.072   0.076   0.064   0.054   0.047   0.053   0.160   0.352
 1991 211    47  21.30  24.30  15.90 -99.000   4.651   3.818   0.811 -99.000 -99.000 -99.000   4.629   3.818   0.811   0.000   0.000  229.92  139.66   63.24   76.42    0.00    0.00   0.161   0.113   0.038   0.070   0.072   0.060   0.051   0.045   0.050   0.151   0.382
 1991 212    48  20.40  23.80  15.80 -99.000   4.428   3.690   0.716 -99.000 -99.000 -99.000   4.406   3.690   0.716   0.000   0.000  234.35  144.07   66.93   77.14    0.00    0.00   0.137   0.098   0.033   0.069   0.063   0.053   0.045   0.040   0.045   0.133   0.369
 1991 213    49  22.00  25.00  14.60 -99.000   4.779   4.037   0.718 -99.000 -99.000 -99.000   4.756   4.037   0.718   0.000   0.000  239.13  148.82   70.97   77.85    0.00    0.00   0.145   0.096   0.033   0.072   0.063   0.052   0.044   0.039   0.044   0.131   0.404
 1991 214    50  24.80  26.50  16.20 -99.000   5.554   4.752   0.775 -99.000 -99.000 -99.000   5.527   4.752   0.775   0.000   0.000  244.68  154.35   75.72   78.63    0.00    0.00   0.147   0.102   0.035   0.079   0.071   0.058   0.049   0.043   0.048   0.144   0.475
 1991 215    51  23.50  24.10  15.10 -99.000   5.051   4.377   0.649 -99.000 -99.000 -99.000   5.026   4.377   0.649   0.000   0.000  249.73  159.38   80.10   79.28    0.00    0.00   0.115   0.083   0.028   0.066   0.061   0.050   0.043   0.037   0.042   0.124   0.438
 1991 216    52  25.00  25.90  15.50 -99.000   5.489   4.863   0.598 -99.000 -99.000 -99.000   5.461   4.863   0.598   0.000   0.000  255.22  164.84   84.96   79.88    0.00    0.00   0.493   0.060   0.010   0.013   0.008   0.004   0.003   0.002   0.002   0.003   0.486
 1991 217    53  21.30  23.80  14.90 -99.000   4.528   4.060   0.444 -99.000 -99.000 -99.000   4.504   4.060   0.444   0.000   0.000  259.75  169.34   89.02   80.32    0.00    0.00   0.084   0.059   0.020   0.043   0.040   0.034   0.029   0.025   0.028   0.083   0.406
 1991 218    54  17.60  25.80  14.30 -99.000   3.819   3.452   0.347 -99.000 -99.000 -99.000   3.799   3.452   0.347   0.000   0.000  263.57  173.14   92.47   80.67    0.00    0.00   0.075   0.049   0.017   0.033   0.029   0.024   0.021   0.018   0.020   0.060   0.345
 1991 219    55  20.60  24.00  14.90 -99.000   4.391   3.990   0.377 -99.000 -99.000 -99.000   4.368   3.990   0.377   0.000   0.000  267.96  177.51   96.46   81.04    0.00    0.00   0.071   0.051   0.018   0.038   0.034   0.028   0.024   0.021   0.023   0.069   0.399
 1991 220    56  21.60  25.10  14.60 -99.000   4.646   4.244   0.378 -99.000 -99.000 -99.000   4.622   4.244   0.378   0.000   0.000  272.61  182.13  100.71   81.42    0.00    0.00   0.076   0.049   0.017   0.037   0.034   0.028   0.024   0.021   0.023   0.069   0.424
 1991 221    57  21.20  22.70  15.60 -99.000   4.466   4.095   0.347 -99.000 -99.000 -99.000   4.442   4.095   0.347   0.000   0.000  277.07  186.57  104.80   81.77    0.00    0.00   0.066   0.045   0.015   0.035   0.032   0.026   0.022   0.019   0.022   0.065   0.410
 1991 222    58  18.50  25.40  15.10 -99.000   4.006   3.683   0.302 -99.000 -99.000 -99.000   3.985   3.683   0.302   0.000   0.000  281.08  190.56  108.49   82.07    0.00    0.00   0.061   0.038   0.013   0.030   0.027   0.022   0.019   0.017   0.019   0.056   0.368
 1991 223    59  17.20  24.80  15.70 -99.000   3.718   3.425   0.273 -99.000 -99.000 -99.000   3.698   3.425   0.273   0.000   0.000  284.80  194.25  111.91   82.34    0.00    0.00   0.052   0.035   0.012   0.028   0.025   0.020   0.018   0.015   0.017   0.051   0.342
 1991 224    60  21.90  25.10  15.40 -99.000   4.735   4.367   0.343 -99.000 -99.000 -99.000   4.710   4.367   0.343   0.000   0.000  289.53  198.96  116.28   82.69    0.00    0.00   0.061   0.044   0.015   0.035   0.032   0.026   0.022   0.020   0.022   0.066   0.437
 1991 225    61  21.30  25.00  15.60 -99.000   4.605   4.251   0.329 -99.000 -99.000 -99.000   4.580   4.251   0.329   0.000   0.000  294.14  203.54  120.53   83.02    0.00    0.00   0.272   0.033   0.005   0.007   0.004   0.002   0.001   0.001   0.001   0.002   0.425
 1991 226    62  24.40  25.80  15.20 -99.000   5.306   4.902   0.377 -99.000 -99.000 -99.000   5.279   4.902   0.377   0.000   0.000  299.44  208.82  125.43   83.39    0.00    0.00   0.309   0.038   0.006   0.009   0.005   0.003   0.002   0.001   0.001   0.002   0.490
 1991 227    63  14.20  24.30  15.80 -99.000   3.047   2.815   0.216 -99.000 -99.000 -99.000   3.031   2.815   0.216   0.000   0.000  302.49  211.85  128.25   83.61    0.00    0.00   0.040   0.029   0.010   0.021   0.019   0.016   0.014   0.012   0.014   0.041   0.282
 1991 228    64  18.50  22.70  15.20 -99.000   3.881   3.584   0.276 -99.000 -99.000 -99.000   3.860   3.584   0.276   0.000   0.000  306.37  215.71  131.83   83.88    0.00    0.00   0.059   0.042   0.014   0.027   0.023   0.018   0.016   0.014   0.016   0.047   0.358
 1991 229    65  14.40  24.30  14.40 -99.000   3.061   2.825   0.219 -99.000 -99.000 -99.000   3.044   2.825   0.219   0.000   0.000  309.43  218.76  134.66   84.10    0.00    0.00   0.041   0.030   0.010   0.023   0.020   0.016   0.014   0.012   0.013   0.040   0.283
 1991 230    66  16.20  26.70  16.70 -99.000   3.606   3.328   0.259 -99.000 -99.000 -99.000   3.587   3.328   0.259   0.000   0.000  313.04  222.34  137.98   84.36    0.00    0.00   0.046   0.035   0.012   0.027   0.024   0.020   0.017   0.015   0.016   0.049   0.333
 1991 231    67  20.60  27.50  15.00 -99.000   4.566   4.213   0.329 -99.000 -99.000 -99.000   4.542   4.213   0.329   0.000   0.000  317.60  226.89  142.20   84.69    0.00    0.00   0.271   0.034   0.006   0.007   0.004   0.002   0.001   0.001   0.001   0.002   0.421
 1991 232    68  20.90  26.90  13.80 -99.000   4.556   4.202   0.329 -99.000 -99.000 -99.000   4.532   4.202   0.329   0.000   0.000  322.16  231.42  146.40   85.02    0.00    0.00   0.062   0.047   0.016   0.034   0.030   0.024   0.020   0.018   0.020   0.060   0.420
 1991 233    69  22.60  25.00  15.60 -99.000   4.892   4.511   0.355 -99.000 -99.000 -99.000   4.866   4.511   0.355   0.000   0.000  327.05  236.29  150.91   85.38    0.00    0.00   0.066   0.049   0.017   0.036   0.032   0.026   0.022   0.019   0.022   0.065   0.451
 1991 234    70  24.70  23.20  15.90 -99.000   5.240   4.830   0.382 -99.000 -99.000 -99.000   5.212   4.830   0.382   0.000   0.000  332.29  241.50  155.74   85.76    0.00    0.00   0.067   0.051   0.017   0.039   0.036   0.029   0.025   0.022   0.024   0.072   0.483
 1991 235    71  18.50  23.40  15.50 -99.000   3.921   3.612   0.287 -99.000 -99.000 -99.000   3.899   3.612   0.287   0.000   0.000  336.21  245.40  159.35   86.04    0.00    0.00   0.049   0.037   0.013   0.030   0.027   0.022   0.019   0.017   0.019   0.056   0.361
 1991 236    72  16.30  25.10  14.60 -99.000   3.502   3.218   0.265 -99.000 -99.000 -99.000   3.483   3.218   0.265   0.000   0.000  339.71  248.88  162.57   86.31    0.00    0.00   0.050   0.037   0.013   0.027   0.024   0.019   0.017   0.014   0.016   0.048   0.322
 1991 237    73  21.60  24.60  14.80 -99.000   4.628   4.242   0.361 -99.000 -99.000 -99.000   4.603   4.242   0.361   0.000   0.000  344.34  253.48  166.81   86.67    0.00    0.00   0.068   0.050   0.017   0.037   0.033   0.026   0.023   0.020   0.022   0.066   0.424
 1991 238    74  24.60  26.00  13.70 -99.000   5.311   4.855   0.428 -99.000 -99.000 -99.000   5.282   4.855   0.428   0.000   0.000  349.65  258.77  171.67   87.10    0.00    0.00   0.076   0.057   0.019   0.044   0.040   0.032   0.028   0.024   0.027   0.081   0.485
 1991 239    75  24.30  25.20  14.70 -99.000   5.237   4.775   0.434 -99.000 -99.000 -99.000   5.210   4.775   0.434   0.000   0.000  354.89  263.98  176.44   87.53    0.00    0.00   0.074   0.056   0.019   0.045   0.041   0.033   0.029   0.025   0.028   0.084   0.478
 1991 240    76  17.40  25.10  14.90 -99.000   3.752   3.412   0.320 -99.000 -99.000 -99.000   3.732   3.412   0.320   0.000   0.000  358.64  267.71  179.85   87.85    0.00    0.00   0.053   0.040   0.014   0.033   0.030   0.024   0.022   0.019   0.021   0.063   0.341
 1991 241    77  15.50  25.30  13.70 -99.000   3.319   3.010   0.291 -99.000 -99.000 -99.000   3.301   3.010   0.291   0.000   0.000  361.96  271.01  182.87   88.14    0.00    0.00   0.047   0.036   0.012   0.029   0.027   0.022   0.020   0.018   0.020   0.059   0.301
 1991 242    78  23.20  26.60  14.20 -99.000   5.067   4.585   0.456 -99.000 -99.000 -99.000   5.041   4.585   0.456   0.000   0.000  367.03  276.05  187.45   88.60    0.00    0.00   0.072   0.056   0.019   0.046   0.043   0.035   0.032   0.028   0.031   0.094   0.458
 1991 243    79  17.90  27.90  17.30 -99.000   4.066   3.672   0.375 -99.000 -99.000 -99.000   4.046   3.672   0.375   0.000   0.000  371.09  280.10  191.12   88.97    0.00    0.00   0.058   0.044   0.015   0.037   0.035   0.029   0.027   0.024   0.026   0.079   0.367
 1991 244    80  19.90  26.20  14.90 -99.000   4.351   3.919   0.410 -99.000 -99.000 -99.000   4.328   3.919   0.410   0.000   0.000  375.44  284.42  195.04   89.38    0.00    0.00   0.077   0.056   0.019   0.038   0.035   0.028   0.027   0.024   0.027   0.079   0.392
 1991 245    81  20.10  26.70  14.00 -99.000   4.402   3.957   0.423 -99.000 -99.000 -99.000   4.379   3.957   0.423   0.000   0.000  379.85  288.80  199.00   89.81    0.00    0.00   0.082   0.060   0.020   0.041   0.035   0.028   0.027   0.024   0.027   0.079   0.396
 1991 246    82  21.20  24.90  13.30 -99.000   4.514   4.049   0.441 -99.000 -99.000 -99.000   4.490   4.049   0.441   0.000   0.000  384.36  293.29  203.05   90.25    0.00    0.00   0.080   0.060   0.020   0.046   0.039   0.029   0.029   0.025   0.028   0.085   0.405
 1991 247    83  25.00  27.00  12.60 -99.000   5.428   4.860   0.539 -99.000 -99.000 -99.000   5.399   4.860   0.539   0.000   0.000  389.79  298.69  207.91   90.79    0.00    0.00   0.445   0.056   0.009   0.012   0.006   0.003   0.002   0.002   0.001   0.003   0.486
 1991 248    84  22.00  26.90  16.30 -99.000   4.910   4.392   0.494 -99.000 -99.000 -99.000   4.886   4.392   0.494   0.000   0.000  394.70  303.58  212.30   91.28    0.00    0.00   0.404   0.053   0.009   0.012   0.006   0.003   0.002   0.002   0.001   0.003   0.439
 1991 249    85  24.70  29.00  16.60 -99.000   5.659   5.057   0.576 -99.000 -99.000 -99.000   5.632   5.057   0.576   0.000   0.000  400.36  309.21  217.35   91.86    0.00    0.00   0.466   0.064   0.010   0.014   0.007   0.004   0.003   0.002   0.002   0.003   0.506
 1991 250    86  24.60  29.30  15.00 -99.000   5.586   4.986   0.573 -99.000 -99.000 -99.000   5.559   4.986   0.573   0.000   0.000  405.94  314.77  222.34   92.43    0.00    0.00   0.459   0.065   0.011   0.015   0.008   0.004   0.003   0.002   0.002   0.004   0.499
 1991 251    87  24.80  26.90  14.20 -99.000   5.442   4.851   0.563 -99.000 -99.000 -99.000   5.414   4.851   0.563   0.000   0.000  411.38  320.18  227.19   92.99    0.00    0.00   0.449   0.065   0.011   0.015   0.008   0.004   0.003   0.002   0.002   0.004   0.485
 1991 252    88  22.70  29.00  13.90 -99.000   5.092   4.536   0.531 -99.000 -99.000 -99.000   5.067   4.536   0.531   0.000   0.000  416.48  325.25  231.73   93.52    0.00    0.00   0.420   0.063   0.010   0.014   0.008   0.004   0.003   0.002   0.002   0.004   0.454
 1991 253    89  22.90  27.70  16.00 -99.000   5.143   4.577   0.541 -99.000 -99.000 -99.000   5.118   4.577   0.541   0.000   0.000  421.62  330.37  236.30   94.07    0.00    0.00   0.424   0.067   0.011   0.014   0.008   0.004   0.004   0.002   0.002   0.004   0.458
 1991 254    90  19.70  28.70  15.90 -99.000   4.471   3.976   0.474 -99.000 -99.000 -99.000   4.450   3.976   0.474   0.000   0.000  426.09  334.82  240.28   94.54    0.00    0.00   0.398   0.047   0.007   0.008   0.005   0.002   0.002   0.001   0.001   0.002   0.398
 1991 255    91  21.50  26.00  16.20 -99.000   4.760   4.228   0.508 -99.000 -99.000 -99.000   4.736   4.228   0.508   0.000   0.000  430.85  339.56  244.51   95.05    0.00    0.00   0.118   0.079   0.025   0.039   0.034   0.025   0.033   0.029   0.032   0.096   0.423
 1991 256    92  25.10  27.50  15.30 -99.000   5.616   4.985   0.603 -99.000 -99.000 -99.000   5.589   4.985   0.603   0.000   0.000  436.47  345.14  249.49   95.65    0.00    0.00   0.121   0.090   0.031   0.058   0.041   0.029   0.040   0.035   0.039   0.118   0.499
 1991 257    93  25.00  28.10  14.30 -99.000   5.583   4.951   0.604 -99.000 -99.000 -99.000   5.555   4.951   0.604   0.000   0.000  442.05  350.70  254.45   96.25    0.00    0.00   0.113   0.086   0.029   0.065   0.042   0.029   0.041   0.036   0.041   0.121   0.495
 1991 258    94  25.20  29.10  14.40 -99.000   5.695   5.047   0.620 -99.000 -99.000 -99.000   5.667   5.047   0.620   0.000   0.000  447.74  356.37  259.49   96.87    0.00    0.00   0.513   0.065   0.011   0.014   0.005   0.003   0.003   0.002   0.002   0.003   0.505
 1991 259    95  25.00  29.00  15.10 -99.000   5.671   5.023   0.621 -99.000 -99.000 -99.000   5.644   5.023   0.621   0.000   0.000  453.42  362.01  264.52   97.50    0.00    0.00   0.509   0.068   0.011   0.015   0.006   0.003   0.003   0.002   0.002   0.003   0.502
 1991 260    96  24.70  29.90  17.20 -99.000   5.748   5.089   0.633 -99.000 -99.000 -99.000   5.722   5.089   0.633   0.000   0.000  459.16  367.73  269.60   98.13    0.00    0.00   0.512   0.073   0.012   0.016   0.006   0.003   0.003   0.002   0.002   0.004   0.509
 1991 261    97  19.80  24.60  16.20 -99.000   4.300   3.802   0.476 -99.000 -99.000 -99.000   4.279   3.802   0.476   0.000   0.000  463.46  372.01  273.41   98.61    0.00    0.00   0.382   0.056   0.009   0.012   0.005   0.002   0.003   0.002   0.002   0.003   0.380
 1991 262    98  22.40  27.20  16.20 -99.000   5.015   4.432   0.559 -99.000 -99.000 -99.000   4.991   4.432   0.559   0.000   0.000  468.48  377.00  277.84   99.16    0.00    0.00   0.447   0.067   0.011   0.014   0.006   0.003   0.003   0.002   0.002   0.004   0.443
 1991 263    99  25.20  29.20  15.30 -99.000   5.733   5.064   0.642 -99.000 -99.000 -99.000   5.706   5.064   0.642   0.000   0.000  474.21  382.71  282.90   99.81    0.00    0.00   0.510   0.079   0.013   0.017   0.007   0.003   0.004   0.003   0.002   0.005   0.506
 1991 264   100  22.30  29.30  14.60 -99.000   5.051   4.458   0.569 -99.000 -99.000 -99.000   5.017   4.448   0.569   0.000   0.000  479.26  387.73  287.35  100.37    0.00    0.00   0.447   0.073   0.012   0.015   0.006   0.003   0.004   0.003   0.002   0.004   0.445
 1991 265   101  13.70  24.50  15.10 -99.000   2.944   2.595   0.333 -99.000 -99.000 -99.000   2.929   2.595   0.333   0.000   0.000  482.21  390.65  289.95  100.71    0.00    0.00   0.260   0.044   0.007   0.008   0.004   0.002   0.002   0.002   0.001   0.003   0.260
 1991 266   102  22.20  29.50  15.70 -99.000   5.081   4.478   0.579 -99.000 -99.000 -99.000   5.057   4.478   0.579   0.000   0.000  487.29  395.71  294.43  101.29    0.00    0.00   0.448   0.079   0.013   0.014   0.006   0.003   0.004   0.003   0.003   0.005   0.448
 1991 267   103  17.50  28.40  15.00 -99.000   3.934   3.464   0.451 -99.000 -99.000 -99.000   3.915   3.464   0.451   0.000   0.000  491.22  399.63  297.89  101.74    0.00    0.00   0.345   0.065   0.011   0.010   0.005   0.003   0.004   0.003   0.002   0.004   0.346
 1991 268   104  21.60  25.00  15.40 -99.000   4.680   4.116   0.540 -99.000 -99.000 -99.000   4.656   4.116   0.540   0.000   0.000  495.90  404.28  302.01  102.28    0.00    0.00   0.409   0.080   0.013   0.012   0.006   0.003   0.005   0.003   0.003   0.005   0.412
 1991 269   105  21.70  26.90  15.40 -99.000   4.807   4.226   0.558 -99.000 -99.000 -99.000   3.431   2.915   0.516   0.000   0.000  500.71  407.71  304.92  102.79    0.00    0.00   0.387   0.079   0.013   0.012   0.006   0.003   0.005   0.003   0.003   0.006   0.292
 1991 270   106  20.00  25.30  14.60 -99.000   4.322   3.781   0.519 -99.000 -99.000 -99.000   2.359   1.883   0.476   0.000   0.000  505.03  410.07  306.80  103.27    0.00    0.00   0.351   0.076   0.013   0.011   0.005   0.003   0.005   0.003   0.003   0.006   0.188
 1991 271   107  24.90  26.00  14.90 -99.000   5.442   4.726   0.689 -99.000 -99.000 -99.000   1.853   1.411   0.441   0.000   0.000  510.47  411.93  308.21  103.71    0.00    0.00   0.320   0.074   0.012   0.011   0.005   0.003   0.005   0.003   0.003   0.006   0.141
 1991 272   108  27.20  28.80  14.60 -99.000   6.134   5.270   0.835 -99.000 -99.000 -99.000   1.542   1.132   0.410   0.000   0.000  516.61  413.47  309.35  104.12    0.00    0.00   0.290   0.072   0.012   0.011   0.005   0.003   0.005   0.003   0.003   0.006   0.113
 1991 273   109  24.60  29.10  15.90 -99.000   5.628   4.774   0.829 -99.000 -99.000 -99.000   1.327   0.946   0.381   0.000   0.000  522.24  414.80  310.29  104.50    0.00    0.00   0.264   0.070   0.012   0.011   0.005   0.003   0.005   0.003   0.003   0.006   0.095
 1991 274   110  23.10  30.50  15.20 -99.000   5.348   4.474   0.850 -99.000 -99.000 -99.000   1.165   0.810   0.355   0.000   0.000  527.58  415.96  311.10  104.86    0.00    0.00   0.240   0.069   0.012   0.010   0.005   0.003   0.005   0.003   0.003   0.006   0.081
 1991 275   111  22.70  31.00  14.10 -99.000   5.248   4.326   0.900 -99.000 -99.000 -99.000   1.020   0.688   0.332   0.000   0.000  532.83  416.98  311.79  105.19    0.00    0.00   0.218   0.068   0.011   0.010   0.005   0.003   0.005   0.003   0.003   0.006   0.069
 1991 276   112  23.20  32.00  14.70 -99.000   5.456   4.426   1.007 -99.000 -99.000 -99.000   0.852   0.541   0.311   0.000   0.000  538.29  417.83  312.33  105.50    0.00    0.00   0.198   0.067   0.011   0.010   0.005   0.003   0.005   0.003   0.003   0.006   0.054
 1991 277   113  21.70  31.60  15.70 -99.000   5.126   4.086   1.019 -99.000 -99.000 -99.000   0.675   0.382   0.292   0.000   0.000  543.41  418.51  312.71  105.79    0.00    0.00   0.180   0.067   0.011   0.010   0.005   0.003   0.005   0.003   0.003   0.006   0.038
 1991 278   114  22.60  27.10  15.40 -99.000   5.069   3.965   1.082 -99.000 -99.000 -99.000   0.544   0.268   0.275   0.000   0.000  548.48  419.05  312.98  106.07    0.00    0.00   0.164   0.066   0.011   0.010   0.005   0.003   0.005   0.003   0.003   0.006   0.027
 1991 279   115  19.00  30.20  14.70 -99.000   4.400   3.373   1.009 -99.000 -99.000 -99.000   0.753   0.247   0.505   0.000   0.000  552.88  419.80  313.23  106.57    0.00    0.00   0.395   0.066   0.011   0.010   0.005   0.003   0.005   0.003   0.003   0.006   0.025
 1991 280   116  23.80  25.70  14.50 -99.000   5.264   3.949   1.293 -99.000 -99.000 -99.000   1.107   0.392   0.715   0.000   0.000  558.15  420.91  313.62  107.29    0.00    0.00   0.604   0.066   0.011   0.010   0.005   0.003   0.005   0.003   0.003   0.006   0.039
 1991 281   117  24.20  29.40  13.70 -99.000   5.563   4.085   1.455 -99.000 -99.000 -99.000   0.858   0.213   0.644   0.000   0.000  563.71  421.77  313.83  107.93    0.00    0.00   0.535   0.065   0.011   0.010   0.005   0.002   0.005   0.003   0.003   0.006   0.021
 1991 282   118  23.80  29.20  13.00 -99.000   5.438   3.902   1.514 -99.000 -99.000 -99.000   0.795   0.200   0.595   0.000   0.000  569.15  422.56  314.03  108.53    0.00    0.00   0.486   0.065   0.011   0.010   0.004   0.002   0.005   0.003   0.003   0.006   0.020
 1991 283   119  23.50  30.00  13.40 -99.000   5.445   3.813   1.611 -99.000 -99.000 -99.000   0.688   0.137   0.551   0.000   0.000  574.59  423.25  314.17  109.08    0.00    0.00   0.442   0.065   0.011   0.010   0.004   0.002   0.005   0.003   0.003   0.006   0.014
 1991 284   120  22.80  29.70  12.30 -99.000   5.230   3.570   1.640 -99.000 -99.000 -99.000   0.510   0.000   0.510   0.000   0.000  579.82  423.76  314.17  109.59    0.00    0.00   0.401   0.064   0.011   0.010   0.004   0.002   0.005   0.003   0.003   0.006   0.000
 1991 285   121  26.40  28.80  13.40 -99.000   6.055   4.021   2.012 -99.000 -99.000 -99.000   0.473   0.000   0.473   0.000   0.000  585.88  424.23  314.17  110.06    0.00    0.00   0.365   0.064   0.011   0.010   0.004   0.002   0.005   0.003   0.003   0.006   0.000
 1991 286   122  24.80  25.10  13.80 -99.000   5.472   3.530   1.921 -99.000 -99.000 -99.000   0.439   0.000   0.439   0.000   0.000  591.35  424.67  314.17  110.50    0.00    0.00   0.332   0.063   0.011   0.010   0.004   0.002   0.005   0.003   0.003   0.006   0.000
 1991 287   123  25.00  26.20  12.30 -99.000   5.533   3.465   2.047 -99.000 -99.000 -99.000   0.409   0.000   0.409   0.000   0.000  596.88  425.08  314.17  110.91    0.00    0.00   0.302   0.063   0.011   0.010   0.004   0.002   0.005   0.003   0.003   0.006   0.000
 1991 288   124  26.70  28.50  11.00 -99.000   6.023   3.660   2.342 -99.000 -99.000 -99.000   0.381   0.000   0.381   0.000   0.000  602.91  425.46  314.17  111.29    0.00    0.00   0.274   0.063   0.011   0.010   0.004   0.002   0.005   0.003   0.003   0.006   0.000
 1991 289   125  22.00  28.30  12.00 -99.000   5.000   2.945   2.038 -99.000 -99.000 -99.000   0.356   0.000   0.356   0.000   0.000  607.91  425.82  314.17  111.65    0.00    0.00   0.249   0.062   0.011   0.010   0.004   0.002   0.005   0.003   0.003   0.006   0.000
 1991 290   126  23.00  27.80  11.40 -99.000   5.181   2.955   2.209 -99.000 -99.000 -99.000   0.333   0.000   0.333   0.000   0.000  613.09  426.15  314.17  111.98    0.00    0.00   0.227   0.062   0.011   0.010   0.004   0.002   0.005   0.003   0.003   0.006   0.000
 1991 291   127  23.10  27.60  11.10 -99.000   5.188   2.863   2.308 -99.000 -99.000 -99.000   0.312   0.000   0.312   0.000   0.000  618.28  426.46  314.17  112.29    0.00    0.00   0.206   0.062   0.011   0.010   0.004   0.002   0.005   0.003   0.003   0.006   0.000
 1991 292   128  23.00  28.30  10.70 -99.000   5.190   2.864   2.309 -99.000 -99.000 -99.000   0.293   0.000   0.293   0.000   0.000  623.47  426.76  314.17  112.58    0.00    0.00   0.187   0.061   0.011   0.010   0.004   0.002   0.005   0.003   0.003   0.006   0.000

*DSSAT Cropping System Model Ver. 4.7.5.008 -release  JAN 15, 2021 21:49:57

*RUN   2        : ERiMA DCC1                MZCER047 ETMZpolo    1
 MODEL          : MZCER047 - Maize
 EXPERIMENT     : ETMZpolo SN MELKSSAL
 DATA PATH      : C:\Users\kpodo\Documents\GitHub\ET_DSS_hist_Eunjin\TEST\
 TREATMENT  1   : ERiMA DCC1                MZCER047
  
!                                                                                                                                                                                        Soil evaporation (mm/d) by soil depth (cm):
!                                                                                                                                                                                        0-5    5-15   15-20   20-35   35-50   50-65   65-81   81-97  97-118 118-200
@YEAR DOY   DAS   SRAA  TMAXA  TMINA    REFA    EOAA    EOPA    EOSA    KCAA    KCBA    KEAA    ETAA    EPAA    ESAA    EFAA    EMAA    EOAC    ETAC    EPAC    ESAC    EFAC    EMAC    ES1D    ES2D    ES3D    ES4D    ES5D    ES6D    ES7D    ES8D    ES9D   ES10D   TRWUD
 1992 165     1  17.20  27.80  15.90 -99.000   4.465   0.000   4.465 -99.000 -99.000 -99.000   1.007   0.000   1.007   0.000   0.000    4.47    1.01    0.00    1.01    0.00    0.00   0.824   0.105   0.017   0.022   0.015   0.008   0.005   0.003   0.003   0.006   0.000
 1992 166     2  21.80  29.70  15.10 -99.000   5.725   0.000   5.725 -99.000 -99.000 -99.000   5.725   0.000   5.725   0.000   0.000   10.19    6.73    0.00    6.73    0.00    0.00   1.028   0.716   0.226   0.503   0.562   0.455   0.387   0.337   0.380   1.132   0.000
 1992 167     3  22.10  29.80  15.20 -99.000   5.918   0.000   5.918 -99.000 -99.000 -99.000   5.918   0.000   5.918   0.000   0.000   16.11   12.65    0.00   12.65    0.00    0.00   1.103   0.775   0.226   0.507   0.569   0.462   0.394   0.343   0.387   1.154   0.000
 1992 168     4  20.90  31.40  15.60 -99.000   5.663   0.000   5.663 -99.000 -99.000 -99.000   1.096   0.000   1.096   0.000   0.000   21.77   13.75    0.00   13.75    0.00    0.00   0.904   0.116   0.016   0.021   0.014   0.008   0.005   0.003   0.003   0.006   0.000
 1992 169     5  20.40  31.10  16.10 -99.000   5.505   0.000   5.505 -99.000 -99.000 -99.000   1.013   0.000   1.013   0.000   0.000   27.28   14.76    0.00   14.76    0.00    0.00   0.822   0.115   0.016   0.021   0.014   0.008   0.005   0.003   0.003   0.006   0.000
 1992 170     6  22.30  26.70  16.10 -99.000   5.701   0.000   5.701 -99.000 -99.000 -99.000   5.701   0.000   5.701   0.000   0.000   32.98   20.46    0.00   20.46    0.00    0.00   1.084   0.768   0.235   0.477   0.536   0.436   0.373   0.325   0.367   1.098   0.000
 1992 171     7  21.30  30.40  15.80 -99.000   5.812   0.000   5.812 -99.000 -99.000 -99.000   5.812   0.000   5.812   0.000   0.000   38.79   26.27    0.00   26.27    0.00    0.00   1.128   0.782   0.259   0.496   0.535   0.437   0.374   0.327   0.369   1.105   0.000
 1992 172     8  21.40  31.60  17.30 -99.000   5.899   0.015   5.884 -99.000 -99.000 -99.000   5.899   0.015   5.884   0.000   0.000   44.69   32.17    0.01   32.16    0.00    0.00   1.061   0.784   0.264   0.527   0.550   0.450   0.386   0.337   0.381   1.144   0.001
 1992 173     9  19.90  29.60  16.10 -99.000   5.287   0.028   5.259 -99.000 -99.000 -99.000   1.082   0.028   1.054   0.000   0.000   49.98   33.25    0.04   33.21    0.00    0.00   0.862   0.114   0.019   0.021   0.014   0.008   0.005   0.003   0.003   0.005   0.003
 1992 174    10  20.20  25.60  16.50 -99.000   5.117   0.041   5.075 -99.000 -99.000 -99.000   1.014   0.041   0.973   0.000   0.000   55.09   34.27    0.08   34.18    0.00    0.00   0.782   0.114   0.019   0.021   0.014   0.008   0.005   0.003   0.003   0.005   0.004
 1992 175    11  18.60  28.60  16.30 -99.000   4.850   0.052   4.798 -99.000 -99.000 -99.000   0.952   0.052   0.900   0.000   0.000   59.94   35.22    0.14   35.08    0.00    0.00   0.709   0.113   0.019   0.021   0.014   0.008   0.005   0.003   0.003   0.005   0.005
 1992 176    12  20.60  30.50  15.70 -99.000   5.436   0.112   5.323 -99.000 -99.000 -99.000   0.945   0.112   0.834   0.000   0.000   65.38   36.17    0.25   35.92    0.00    0.00   0.644   0.112   0.019   0.021   0.014   0.008   0.005   0.003   0.003   0.005   0.011
 1992 177    13  21.50  28.90  16.50 -99.000   5.578   0.182   5.394 -99.000 -99.000 -99.000   0.956   0.182   0.773   0.000   0.000   70.95   37.12    0.43   36.69    0.00    0.00   0.585   0.111   0.019   0.021   0.014   0.008   0.005   0.003   0.003   0.005   0.018
 1992 178    14  20.60  29.10  16.50 -99.000   5.330   0.247   5.083 -99.000 -99.000 -99.000   1.370   0.247   1.124   0.000   0.000   76.29   38.49    0.68   37.81    0.00    0.00   0.925   0.120   0.020   0.022   0.014   0.008   0.005   0.003   0.003   0.005   0.025
 1992 179    15  21.10  31.00  16.50 -99.000   5.766   0.355   5.410 -99.000 -99.000 -99.000   5.765   0.355   5.410   0.000   0.000   82.05   44.26    1.03   43.22    0.00    0.00   1.055   0.732   0.247   0.500   0.484   0.397   0.341   0.299   0.338   1.017   0.035
 1992 180    16  20.00  22.70  16.80 -99.000   4.892   0.389   4.501 -99.000 -99.000 -99.000   4.890   0.389   4.501   0.000   0.000   86.94   49.15    1.42   47.73    0.00    0.00   0.910   0.627   0.217   0.440   0.386   0.318   0.274   0.240   0.272   0.818   0.039
 1992 181    17  20.80  26.30  16.40 -99.000   5.350   0.499   4.848 -99.000 -99.000 -99.000   5.347   0.499   4.848   0.000   0.000   92.29   54.49    1.92   52.57    0.00    0.00   1.032   0.720   0.251   0.489   0.410   0.323   0.276   0.243   0.275   0.829   0.050
 1992 182    18  18.00  22.90  16.20 -99.000   4.422   0.490   3.929 -99.000 -99.000 -99.000   4.419   0.490   3.929   0.000   0.000   96.72   58.91    2.41   56.50    0.00    0.00   0.733   0.553   0.190   0.414   0.364   0.285   0.242   0.212   0.233   0.704   0.049
 1992 183    19  20.60  28.00  17.30 -99.000   5.346   0.677   4.665 -99.000 -99.000 -99.000   5.343   0.677   4.665   0.000   0.000  102.06   64.25    3.09   61.17    0.00    0.00   0.815   0.629   0.215   0.494   0.442   0.358   0.305   0.266   0.285   0.856   0.068
 1992 184    20  20.60  29.70  17.80 -99.000   5.423   0.809   4.610 -99.000 -99.000 -99.000   5.419   0.809   4.610   0.000   0.000  107.48   69.67    3.90   65.78    0.00    0.00   0.748   0.611   0.212   0.494   0.447   0.363   0.309   0.269   0.290   0.866   0.081
 1992 185    21  15.20  27.60  17.00 -99.000   3.852   0.675   3.173 -99.000 -99.000 -99.000   3.848   0.675   3.173   0.000   0.000  111.34   73.52    4.57   68.95    0.00    0.00   0.587   0.448   0.157   0.328   0.293   0.237   0.200   0.174   0.188   0.561   0.068
 1992 186    22  20.00  28.10  15.90 -99.000   5.139   1.029   4.105 -99.000 -99.000 -99.000   5.134   1.029   4.105   0.000   0.000  116.48   78.65    5.60   73.05    0.00    0.00   0.774   0.570   0.197   0.423   0.381   0.306   0.258   0.225   0.248   0.725   0.103
 1992 187    23  17.40  24.60  16.70 -99.000   4.245   0.980   3.259 -99.000 -99.000 -99.000   4.240   0.980   3.259   0.000   0.000  120.72   82.89    6.58   76.31    0.00    0.00   0.569   0.435   0.149   0.342   0.310   0.250   0.213   0.185   0.209   0.597   0.098
 1992 188    24  19.90  28.00  16.80 -99.000   5.013   1.297   3.709 -99.000 -99.000 -99.000   5.007   1.297   3.709   0.000   0.000  125.73   87.90    7.88   80.02    0.00    0.00   0.612   0.487   0.169   0.393   0.358   0.290   0.247   0.216   0.243   0.694   0.130
 1992 189    25  20.10  30.40  16.10 -99.000   5.129   1.502   3.619 -99.000 -99.000 -99.000   2.504   1.502   1.001   0.000   0.000  130.86   90.40    9.38   81.02    0.00    0.00   0.805   0.113   0.019   0.026   0.014   0.008   0.005   0.003   0.003   0.005   0.150
 1992 190    26  20.40  29.00  16.50 -99.000   5.090   1.683   3.398 -99.000 -99.000 -99.000   2.580   1.683   0.897   0.000   0.000  135.95   92.98   11.06   81.92    0.00    0.00   0.705   0.108   0.019   0.025   0.014   0.008   0.005   0.003   0.003   0.005   0.168
 1992 191    27  20.00  27.60  16.00 -99.000   4.852   1.785   3.057 -99.000 -99.000 -99.000   2.605   1.785   0.820   0.000   0.000  140.81   95.59   12.85   82.74    0.00    0.00   0.635   0.103   0.018   0.025   0.014   0.008   0.005   0.003   0.003   0.005   0.179
 1992 192    28  18.20  25.80  15.30 -99.000   4.269   1.717   2.542 -99.000 -99.000 -99.000   2.460   1.707   0.753   0.000   0.000  145.07   98.05   14.56   83.49    0.00    0.00   0.575   0.098   0.017   0.025   0.014   0.008   0.005   0.003   0.003   0.005   0.171
 1992 193    29  20.60  28.00  16.10 -99.000   4.956   2.157   2.787 -99.000 -99.000 -99.000   2.853   2.157   0.696   0.000   0.000  150.03  100.90   16.71   84.19    0.00    0.00   0.523   0.094   0.016   0.024   0.014   0.008   0.005   0.003   0.003   0.005   0.216
 1992 194    30  19.50  24.40  16.80 -99.000   4.491   2.123   2.356 -99.000 -99.000 -99.000   3.025   2.123   0.902   0.000   0.000  154.52  103.93   18.84   85.09    0.00    0.00   0.733   0.092   0.015   0.023   0.014   0.008   0.005   0.003   0.003   0.005   0.212
 1992 195    31  22.30  27.90  15.00 -99.000   5.318   2.680   2.623 -99.000 -99.000 -99.000   5.303   2.680   2.623   0.000   0.000  159.84  109.23   21.52   87.71    0.00    0.00   0.525   0.293   0.090   0.240   0.256   0.209   0.178   0.155   0.175   0.501   0.268
 1992 196    32  22.20  24.80  15.50 -99.000   5.113   2.746   2.351 -99.000 -99.000 -99.000   5.097   2.746   2.351   0.000   0.000  164.95  114.33   24.26   90.07    0.00    0.00   0.498   0.294   0.078   0.199   0.222   0.181   0.155   0.135   0.152   0.437   0.275
 1992 197    33  18.70  24.30  15.80 -99.000   4.274   2.437   1.822 -99.000 -99.000 -99.000   4.259   2.437   1.822   0.000   0.000  169.23  118.59   26.70   91.89    0.00    0.00   0.399   0.246   0.072   0.147   0.165   0.135   0.116   0.101   0.114   0.327   0.244
 1992 198    34  18.30  23.60  15.20 -99.000   4.113   2.471   1.627 -99.000 -99.000 -99.000   4.099   2.471   1.627   0.000   0.000  173.34  122.69   29.17   93.52    0.00    0.00   0.355   0.237   0.082   0.137   0.141   0.115   0.099   0.086   0.097   0.278   0.247
 1992 199    35  14.10  27.30  15.00 -99.000   3.291   2.067   1.213 -99.000 -99.000 -99.000   3.280   2.067   1.213   0.000   0.000  176.63  125.97   31.24   94.73    0.00    0.00   0.231   0.169   0.059   0.119   0.111   0.090   0.076   0.066   0.075   0.215   0.207
 1992 200    36  20.70  26.50  15.70 -99.000   4.768   3.130   1.620 -99.000 -99.000 -99.000   4.750   3.130   1.620   0.000   0.000  181.40  130.72   34.37   96.35    0.00    0.00   0.289   0.217   0.074   0.169   0.154   0.125   0.105   0.091   0.102   0.294   0.313
 1992 201    37  20.70  25.20  16.40 -99.000   4.691   3.203   1.469 -99.000 -99.000 -99.000   4.307   3.203   1.104   0.000   0.000  186.09  135.02   37.57   97.45    0.00    0.00   0.905   0.115   0.019   0.026   0.015   0.008   0.005   0.003   0.003   0.005   0.320
 1992 202    38  10.90  23.90  16.00 -99.000   2.410   1.703   0.697 -99.000 -99.000 -99.000   2.400   1.703   0.697   0.000   0.000  188.50  137.42   39.27   98.15    0.00    0.00   0.130   0.094   0.032   0.071   0.065   0.053   0.045   0.038   0.043   0.124   0.170
 1992 203    39  16.90  23.30  15.70 -99.000   3.718   2.690   1.012 -99.000 -99.000 -99.000   3.702   2.690   1.012   0.000   0.000  192.22  141.13   41.96   99.16    0.00    0.00   0.194   0.138   0.047   0.103   0.094   0.076   0.064   0.055   0.062   0.178   0.269
 1992 204    40  21.90  26.10  15.40 -99.000   4.936   3.665   1.250 -99.000 -99.000 -99.000   4.915   3.665   1.250   0.000   0.000  197.15  146.04   45.63  100.41    0.00    0.00   0.223   0.166   0.056   0.130   0.119   0.096   0.082   0.071   0.080   0.228   0.367
 1992 205    41  19.50  25.60  15.10 -99.000   4.338   3.304   1.015 -99.000 -99.000 -99.000   4.319   3.304   1.015   0.000   0.000  201.49  150.36   48.93  101.43    0.00    0.00   0.199   0.136   0.046   0.102   0.094   0.076   0.064   0.056   0.063   0.179   0.330
 1992 206    42  14.90  28.00  17.40 -99.000   3.474   2.707   0.752 -99.000 -99.000 -99.000   3.460   2.707   0.752   0.000   0.000  204.96  153.82   51.64  102.18    0.00    0.00   0.160   0.107   0.037   0.074   0.067   0.054   0.045   0.039   0.044   0.125   0.271
 1992 207    43  21.80  26.70  17.80 -99.000   5.009   3.981   1.007 -99.000 -99.000 -99.000   4.988   3.981   1.007   0.000   0.000  209.97  158.81   55.62  103.19    0.00    0.00   0.209   0.150   0.052   0.103   0.090   0.072   0.060   0.052   0.058   0.163   0.398
 1992 208    44  20.30  25.80  17.30 -99.000   4.583   3.720   0.843 -99.000 -99.000 -99.000   4.563   3.720   0.843   0.000   0.000  214.56  163.37   59.34  104.03    0.00    0.00   0.156   0.116   0.039   0.088   0.079   0.063   0.053   0.046   0.052   0.150   0.372
 1992 209    45  19.60  23.60  16.00 -99.000   4.247   3.509   0.718 -99.000 -99.000 -99.000   4.226   3.509   0.718   0.000   0.000  218.80  167.60   62.85  104.75    0.00    0.00   0.138   0.102   0.034   0.075   0.066   0.053   0.044   0.038   0.042   0.126   0.351
 1992 210    46  11.70  25.50  15.60 -99.000   2.585   2.167   0.406 -99.000 -99.000 -99.000   2.573   2.167   0.406   0.000   0.000  221.39  170.17   65.02  105.15    0.00    0.00   0.075   0.056   0.019   0.042   0.038   0.030   0.026   0.022   0.025   0.074   0.217
 1992 211    47  22.60  24.40  16.90 -99.000   4.966   4.198   0.744 -99.000 -99.000 -99.000   4.942   4.198   0.744   0.000   0.000  226.35  175.11   69.21  105.90    0.00    0.00   0.131   0.098   0.033   0.078   0.070   0.057   0.048   0.042   0.047   0.140   0.420
 1992 212    48  20.70  26.70  17.00 -99.000   4.665   3.987   0.657 -99.000 -99.000 -99.000   4.644   3.987   0.657   0.000   0.000  231.02  179.76   73.20  106.55    0.00    0.00   0.112   0.084   0.028   0.068   0.063   0.051   0.044   0.038   0.043   0.127   0.399
 1992 213    49  16.40  27.40  16.20 -99.000   3.695   3.199   0.479 -99.000 -99.000 -99.000   3.678   3.199   0.479   0.000   0.000  234.72  183.43   76.40  107.03    0.00    0.00   0.078   0.059   0.020   0.049   0.047   0.038   0.033   0.029   0.032   0.095   0.320
 1992 214    50  15.00  24.20  16.40 -99.000   3.255   2.842   0.397 -99.000 -99.000 -99.000   3.239   2.842   0.397   0.000   0.000  237.97  186.67   79.24  107.43    0.00    0.00   0.062   0.047   0.016   0.040   0.039   0.032   0.028   0.024   0.027   0.081   0.284
 1992 215    51  19.50  24.40  16.10 -99.000   4.226   3.722   0.482 -99.000 -99.000 -99.000   4.204   3.722   0.482   0.000   0.000  242.20  190.88   82.96  107.91    0.00    0.00   0.072   0.056   0.019   0.049   0.048   0.040   0.034   0.030   0.034   0.100   0.372
 1992 216    52  21.80  24.70  16.30 -99.000   4.742   4.213   0.505 -99.000 -99.000 -99.000   4.718   4.213   0.505   0.000   0.000  246.94  195.60   87.18  108.42    0.00    0.00   0.093   0.068   0.023   0.048   0.046   0.038   0.033   0.029   0.032   0.096   0.421
 1992 217    53  13.70  22.30  15.40 -99.000   2.879   2.577   0.286 -99.000 -99.000 -99.000   2.863   2.577   0.286   0.000   0.000  249.82  198.46   89.75  108.70    0.00    0.00   0.060   0.043   0.014   0.027   0.024   0.020   0.017   0.015   0.016   0.049   0.258
 1992 218    54  13.30  27.70  15.00 -99.000   2.970   2.672   0.283 -99.000 -99.000 -99.000   2.955   2.672   0.283   0.000   0.000  252.79  201.41   92.43  108.99    0.00    0.00   0.053   0.039   0.013   0.029   0.026   0.021   0.018   0.015   0.017   0.052   0.267
 1992 219    55  22.20  27.60  17.10 -99.000   5.024   4.537   0.463 -99.000 -99.000 -99.000   5.000   4.537   0.463   0.000   0.000  257.81  206.41   96.96  109.45    0.00    0.00   0.081   0.061   0.021   0.048   0.043   0.035   0.030   0.026   0.029   0.087   0.454
 1992 220    56  10.60  24.00  16.60 -99.000   2.288   2.076   0.200 -99.000 -99.000 -99.000   2.276   2.076   0.200   0.000   0.000  260.10  208.69   99.04  109.65    0.00    0.00   0.038   0.028   0.009   0.021   0.018   0.015   0.012   0.011   0.012   0.036   0.208
 1992 221    57  13.50  23.80  15.60 -99.000   2.887   2.623   0.249 -99.000 -99.000 -99.000   2.872   2.623   0.249   0.000   0.000  262.99  211.56  101.66  109.90    0.00    0.00   0.046   0.034   0.012   0.026   0.023   0.018   0.016   0.013   0.015   0.045   0.262
 1992 222    58  18.20  27.70  15.70 -99.000   4.075   3.709   0.345 -99.000 -99.000 -99.000   4.054   3.709   0.345   0.000   0.000  267.06  215.61  105.37  110.24    0.00    0.00   0.061   0.046   0.015   0.036   0.032   0.026   0.022   0.019   0.022   0.065   0.371
 1992 223    59  14.20  24.30  16.10 -99.000   3.062   2.792   0.253 -99.000 -99.000 -99.000   3.045   2.792   0.253   0.000   0.000  270.12  218.66  108.16  110.50    0.00    0.00   0.043   0.033   0.011   0.026   0.024   0.020   0.017   0.015   0.016   0.049   0.279
 1992 224    60  18.10  24.00  14.90 -99.000   3.850   3.515   0.314 -99.000 -99.000 -99.000   3.829   3.515   0.314   0.000   0.000  273.97  222.49  111.68  110.81    0.00    0.00   0.052   0.040   0.013   0.033   0.030   0.025   0.021   0.018   0.021   0.062   0.351
 1992 225    61  17.70  25.60  14.40 -99.000   3.821   3.493   0.308 -99.000 -99.000 -99.000   3.801   3.493   0.308   0.000   0.000  277.79  226.29  115.17  111.12    0.00    0.00   0.049   0.038   0.013   0.032   0.030   0.025   0.021   0.018   0.021   0.062   0.349
 1992 226    62  16.40  22.70  16.60 -99.000   3.479   3.183   0.277 -99.000 -99.000 -99.000   3.460   3.183   0.277   0.000   0.000  281.27  229.75  118.35  111.40    0.00    0.00   0.052   0.037   0.012   0.027   0.025   0.021   0.018   0.016   0.017   0.052   0.318
 1992 227    63  15.60  21.80  15.90 -99.000   3.260   2.984   0.258 -99.000 -99.000 -99.000   3.242   2.984   0.258   0.000   0.000  284.53  232.99  121.34  111.65    0.00    0.00   0.049   0.035   0.012   0.026   0.023   0.019   0.016   0.014   0.016   0.048   0.298
 1992 228    64  16.90  24.50  15.20 -99.000   3.626   3.320   0.286 -99.000 -99.000 -99.000   3.606   3.320   0.286   0.000   0.000  288.16  236.60  124.66  111.94    0.00    0.00   0.051   0.038   0.013   0.029   0.027   0.022   0.019   0.016   0.018   0.054   0.332
 1992 229    65  16.00  22.40  16.60 -99.000   3.383   3.099   0.266 -99.000 -99.000 -99.000   3.365   3.099   0.266   0.000   0.000  291.54  239.96  127.76  112.21    0.00    0.00   0.046   0.034   0.011   0.027   0.025   0.020   0.018   0.015   0.017   0.052   0.310
 1992 230    66  20.70  23.80  16.80 -99.000   4.458   4.085   0.349 -99.000 -99.000 -99.000   4.434   4.085   0.349   0.000   0.000  296.00  244.40  131.84  112.56    0.00    0.00   0.068   0.045   0.015   0.035   0.032   0.026   0.022   0.019   0.022   0.065   0.408
 1992 231    67  17.20  23.00  16.50 -99.000   3.664   3.359   0.286 -99.000 -99.000 -99.000   3.645   3.359   0.286   0.000   0.000  299.66  248.04  135.20  112.84    0.00    0.00   0.060   0.040   0.014   0.029   0.025   0.020   0.017   0.015   0.017   0.050   0.336
 1992 232    68  15.70  23.20  15.80 -99.000   3.334   3.056   0.260 -99.000 -99.000 -99.000   3.316   3.056   0.260   0.000   0.000  302.99  251.36  138.26  113.10    0.00    0.00   0.053   0.038   0.013   0.028   0.023   0.018   0.015   0.013   0.015   0.043   0.306
 1992 233    69  21.60  23.20  15.10 -99.000   4.561   4.181   0.355 -99.000 -99.000 -99.000   4.536   4.181   0.355   0.000   0.000  307.56  255.89  142.44  113.46    0.00    0.00   0.066   0.049   0.017   0.037   0.033   0.026   0.022   0.019   0.022   0.064   0.418
 1992 234    70  22.60  22.70  15.70 -99.000   4.763   4.356   0.381 -99.000 -99.000 -99.000   4.737   4.356   0.381   0.000   0.000  312.32  260.63  146.79  113.84    0.00    0.00   0.067   0.050   0.017   0.040   0.036   0.029   0.025   0.021   0.024   0.072   0.436
 1992 235    71  17.00  24.10  16.20 -99.000   3.659   3.339   0.301 -99.000 -99.000 -99.000   3.640   3.339   0.301   0.000   0.000  315.98  264.27  150.13  114.14    0.00    0.00   0.051   0.038   0.013   0.031   0.029   0.023   0.020   0.017   0.020   0.058   0.334
 1992 236    72  19.10  24.40  15.60 -99.000   4.107   3.738   0.346 -99.000 -99.000 -99.000   4.085   3.738   0.346   0.000   0.000  320.08  268.36  153.87  114.48    0.00    0.00   0.066   0.046   0.016   0.034   0.032   0.025   0.022   0.019   0.022   0.064   0.374
 1992 237    73  22.60  25.30  16.60 -99.000   4.960   4.506   0.429 -99.000 -99.000 -99.000   4.935   4.506   0.429   0.000   0.000  325.04  273.29  158.38  114.91    0.00    0.00   0.081   0.057   0.019   0.043   0.039   0.032   0.027   0.024   0.027   0.080   0.451
 1992 238    74  20.70  24.50  15.70 -99.000   4.465   4.046   0.396 -99.000 -99.000 -99.000   4.442   4.046   0.396   0.000   0.000  329.51  277.73  162.42  115.31    0.00    0.00   0.078   0.054   0.019   0.039   0.035   0.029   0.024   0.021   0.024   0.071   0.405
 1992 239    75  19.00  25.20  15.30 -99.000   4.126   3.730   0.374 -99.000 -99.000 -99.000   4.104   3.730   0.374   0.000   0.000  333.63  281.84  166.15  115.68    0.00    0.00   0.078   0.055   0.019   0.037   0.033   0.026   0.022   0.019   0.022   0.064   0.373
 1992 240    76  19.80  24.50  15.20 -99.000   4.261   3.844   0.395 -99.000 -99.000 -99.000   4.239   3.844   0.395   0.000   0.000  337.90  286.08  170.00  116.08    0.00    0.00   0.080   0.059   0.020   0.041   0.035   0.028   0.023   0.020   0.022   0.066   0.384
 1992 241    77  21.00  25.00  14.80 -99.000   4.534   4.081   0.429 -99.000 -99.000 -99.000   4.510   4.081   0.429   0.000   0.000  342.43  290.59  174.08  116.51    0.00    0.00   0.079   0.059   0.020   0.045   0.040   0.032   0.027   0.023   0.026   0.078   0.408
 1992 242    78  20.90  23.30  15.90 -99.000   4.456   4.003   0.429 -99.000 -99.000 -99.000   4.432   4.003   0.429   0.000   0.000  346.89  295.02  178.08  116.94    0.00    0.00   0.075   0.057   0.019   0.045   0.041   0.033   0.028   0.024   0.027   0.081   0.400
 1992 243    79  19.80  22.90  15.50 -99.000   4.186   3.754   0.410 -99.000 -99.000 -99.000   4.164   3.754   0.410   0.000   0.000  351.07  299.18  181.84  117.35    0.00    0.00   0.069   0.053   0.018   0.042   0.039   0.032   0.027   0.024   0.027   0.080   0.375
 1992 244    80  23.50  22.90  15.40 -99.000   4.964   4.444   0.494 -99.000 -99.000 -99.000   4.938   4.444   0.494   0.000   0.000  356.04  304.12  186.28  117.84    0.00    0.00   0.095   0.066   0.022   0.049   0.045   0.036   0.031   0.027   0.031   0.092   0.444
 1992 245    81  23.50  24.10  15.80 -99.000   5.065   4.528   0.510 -99.000 -99.000 -99.000   5.038   4.528   0.510   0.000   0.000  361.10  309.16  190.81  118.35    0.00    0.00   0.096   0.068   0.023   0.051   0.047   0.038   0.033   0.028   0.032   0.095   0.453
 1992 246    82  15.90  23.00  15.20 -99.000   3.361   3.001   0.343 -99.000 -99.000 -99.000   3.343   3.001   0.343   0.000   0.000  364.46  312.50  193.81  118.69    0.00    0.00   0.061   0.045   0.015   0.035   0.032   0.026   0.023   0.020   0.022   0.066   0.300
 1992 247    83  21.10  25.00  14.00 -99.000   4.525   4.036   0.465 -99.000 -99.000 -99.000   4.501   4.036   0.465   0.000   0.000  368.99  317.00  197.84  119.16    0.00    0.00   0.080   0.059   0.020   0.047   0.044   0.036   0.031   0.027   0.030   0.091   0.404
 1992 248    84  23.20  24.00  14.30 -99.000   4.926   4.390   0.510 -99.000 -99.000 -99.000   4.900   4.390   0.510   0.000   0.000  373.91  321.90  202.23  119.67    0.00    0.00   0.085   0.063   0.021   0.050   0.049   0.040   0.035   0.030   0.034   0.102   0.439
 1992 249    85  16.10  24.10  13.40 -99.000   3.397   3.025   0.353 -99.000 -99.000 -99.000   3.379   3.025   0.353   0.000   0.000  377.31  325.28  205.26  120.02    0.00    0.00   0.056   0.042   0.014   0.034   0.035   0.028   0.025   0.022   0.024   0.073   0.303
 1992 250    86  17.20  25.20  14.80 -99.000   3.719   3.311   0.389 -99.000 -99.000 -99.000   3.700   3.311   0.389   0.000   0.000  381.03  328.98  208.57  120.41    0.00    0.00   0.075   0.048   0.015   0.035   0.036   0.029   0.026   0.023   0.026   0.076   0.331
 1992 251    87  20.80  22.80  15.00 -99.000   4.387   3.903   0.461 -99.000 -99.000 -99.000   4.364   3.903   0.461   0.000   0.000  385.42  333.35  212.47  120.87    0.00    0.00   0.102   0.064   0.021   0.039   0.039   0.032   0.029   0.025   0.028   0.084   0.390
 1992 252    88  20.00  23.70  15.10 -99.000   4.269   3.795   0.451 -99.000 -99.000 -99.000   4.247   3.795   0.451   0.000   0.000  389.69  337.59  216.27  121.32    0.00    0.00   0.095   0.067   0.023   0.043   0.038   0.030   0.027   0.023   0.026   0.078   0.380
 1992 253    89  16.10  23.50  15.90 -99.000   3.451   3.066   0.367 -99.000 -99.000 -99.000   3.433   3.066   0.367   0.000   0.000  393.14  341.03  219.34  121.69    0.00    0.00   0.068   0.051   0.017   0.038   0.034   0.027   0.023   0.020   0.022   0.067   0.307
 1992 254    90  19.00  24.80  17.10 -99.000   4.172   3.705   0.446 -99.000 -99.000 -99.000   4.151   3.705   0.446   0.000   0.000  397.31  345.18  223.04  122.14    0.00    0.00   0.079   0.059   0.020   0.046   0.042   0.034   0.029   0.025   0.028   0.084   0.371
 1992 255    91  14.90  24.20  15.30 -99.000   3.200   2.840   0.344 -99.000 -99.000 -99.000   3.184   2.840   0.344   0.000   0.000  400.51  348.36  225.88  122.48    0.00    0.00   0.059   0.045   0.015   0.035   0.033   0.026   0.023   0.020   0.022   0.066   0.284
 1992 256    92  20.10  25.30  15.80 -99.000   4.392   3.895   0.475 -99.000 -99.000 -99.000   4.369   3.895   0.475   0.000   0.000  404.90  352.73  229.78  122.95    0.00    0.00   0.389   0.050   0.008   0.011   0.006   0.003   0.002   0.001   0.001   0.002   0.389
 1992 257    93  18.40  24.50  15.40 -99.000   3.968   3.516   0.431 -99.000 -99.000 -99.000   3.947   3.516   0.431   0.000   0.000  408.87  356.68  233.29  123.39    0.00    0.00   0.350   0.046   0.008   0.010   0.006   0.003   0.002   0.001   0.001   0.002   0.352
 1992 258    94  18.70  25.50  14.50 -99.000   4.051   3.587   0.443 -99.000 -99.000 -99.000   4.030   3.587   0.443   0.000   0.000  412.92  360.71  236.88  123.83    0.00    0.00   0.356   0.049   0.008   0.011   0.007   0.004   0.002   0.002   0.001   0.003   0.359
 1992 259    95  21.30  25.50  12.70 -99.000   4.547   4.023   0.500 -99.000 -99.000 -99.000   4.523   4.023   0.500   0.000   0.000  417.47  365.23  240.90  124.33    0.00    0.00   0.400   0.056   0.009   0.012   0.008   0.004   0.003   0.002   0.002   0.003   0.402
 1992 260    96  20.40  25.30  14.10 -99.000   4.393   3.884   0.486 -99.000 -99.000 -99.000   4.370   3.884   0.486   0.000   0.000  421.86  369.60  244.79  124.81    0.00    0.00   0.387   0.055   0.009   0.012   0.008   0.004   0.003   0.002   0.002   0.003   0.388
 1992 261    97  20.60  24.80  13.70 -99.000   4.394   3.882   0.490 -99.000 -99.000 -99.000   4.371   3.882   0.490   0.000   0.000  426.25  373.97  248.67  125.30    0.00    0.00   0.388   0.057   0.009   0.012   0.008   0.005   0.003   0.002   0.002   0.003   0.388
 1992 262    98  20.10  26.70  12.40 -99.000   4.341   3.832   0.487 -99.000 -99.000 -99.000   4.319   3.832   0.487   0.000   0.000  430.59  378.29  252.50  125.79    0.00    0.00   0.410   0.046   0.007   0.008   0.006   0.003   0.002   0.001   0.001   0.002   0.383
 1992 263    99  20.10  26.10  12.60 -99.000   4.335   3.822   0.490 -99.000 -99.000 -99.000   4.312   3.822   0.490   0.000   0.000  434.93  382.60  256.32  126.28    0.00    0.00   0.111   0.071   0.022   0.033   0.041   0.033   0.031   0.027   0.030   0.091   0.382
 1992 264   100  20.70  25.00  13.70 -99.000   4.444   3.915   0.506 -99.000 -99.000 -99.000   4.421   3.915   0.506   0.000   0.000  439.37  387.02  260.24  126.79    0.00    0.00   0.110   0.079   0.027   0.041   0.040   0.032   0.031   0.027   0.030   0.090   0.392
 1992 265   101  26.10  20.80  14.20 -99.000   5.342   4.699   0.613 -99.000 -99.000 -99.000   5.313   4.699   0.613   0.000   0.000  444.72  392.34  264.94  127.40    0.00    0.00   0.130   0.095   0.032   0.059   0.050   0.037   0.036   0.032   0.036   0.106   0.470
 1992 266   102  25.90  24.40  15.10 -99.000   5.585   4.909   0.647 -99.000 -99.000 -99.000   5.556   4.909   0.647   0.000   0.000  450.30  397.89  269.84  128.05    0.00    0.00   0.121   0.090   0.031   0.067   0.059   0.045   0.041   0.035   0.040   0.119   0.491
 1992 267   103  24.30  25.30  14.30 -99.000   5.257   4.615   0.615 -99.000 -99.000 -99.000   5.230   4.615   0.615   0.000   0.000  455.56  403.12  274.46  128.66    0.00    0.00   0.108   0.082   0.028   0.063   0.057   0.046   0.040   0.035   0.039   0.117   0.461
 1992 268   104  25.00  24.70  14.40 -99.000   5.372   4.709   0.635 -99.000 -99.000 -99.000   5.344   4.709   0.635   0.000   0.000  460.93  408.47  279.17  129.30    0.00    0.00   0.521   0.066   0.011   0.014   0.008   0.004   0.003   0.002   0.002   0.003   0.471
 1992 269   105  26.20  25.20  13.60 -99.000   5.625   4.924   0.672 -99.000 -99.000 -99.000   5.596   4.924   0.672   0.000   0.000  466.55  414.06  284.09  129.97    0.00    0.00   0.545   0.073   0.012   0.016   0.009   0.005   0.003   0.002   0.002   0.004   0.492
 1992 270   106  24.20  25.70  15.80 -99.000   5.317   4.649   0.642 -99.000 -99.000 -99.000   5.291   4.649   0.642   0.000   0.000  471.87  419.35  288.74  130.61    0.00    0.00   0.513   0.074   0.012   0.016   0.010   0.005   0.003   0.002   0.002   0.004   0.465
 1992 271   107  21.90  25.30  16.00 -99.000   4.796   4.186   0.586 -99.000 -99.000 -99.000   4.772   4.186   0.586   0.000   0.000  476.67  424.12  292.93  131.20    0.00    0.00   0.465   0.068   0.011   0.015   0.010   0.005   0.003   0.002   0.002   0.004   0.419
 1992 272   108  21.40  23.60  14.90 -99.000   4.551   3.965   0.562 -99.000 -99.000 -99.000   4.527   3.965   0.562   0.000   0.000  481.22  428.65  296.89  131.76    0.00    0.00   0.443   0.067   0.011   0.014   0.010   0.005   0.004   0.002   0.002   0.004   0.396
 1992 273   109  19.50  23.40  15.00 -99.000   4.140   3.600   0.518 -99.000 -99.000 -99.000   4.118   3.600   0.518   0.000   0.000  485.36  432.77  300.49  132.28    0.00    0.00   0.405   0.064   0.011   0.013   0.009   0.005   0.003   0.002   0.002   0.004   0.360
 1992 274   110  23.00  25.50  14.30 -99.000   4.980   4.324   0.631 -99.000 -99.000 -99.000   4.947   4.316   0.631   0.000   0.000  490.34  437.72  304.81  132.91    0.00    0.00   0.489   0.081   0.013   0.015   0.012   0.006   0.004   0.003   0.003   0.005   0.432
 1992 275   111  25.30  27.90  13.10 -99.000   5.583   4.838   0.718 -99.000 -99.000 -99.000   5.490   4.838   0.652   0.000   0.000  495.92  443.21  309.65  133.56    0.00    0.00   0.498   0.088   0.015   0.015   0.013   0.007   0.005   0.003   0.003   0.006   0.484
 1992 276   112  19.70  26.80  14.90 -99.000   4.352   3.763   0.568 -99.000 -99.000 -99.000   4.331   3.763   0.568   0.000   0.000  500.27  447.54  313.41  134.13    0.00    0.00   0.427   0.080   0.013   0.013   0.012   0.006   0.005   0.003   0.003   0.005   0.376
 1992 277   113  17.30  22.30  14.80 -99.000   3.617   3.119   0.479 -99.000 -99.000 -99.000   3.598   3.119   0.479   0.000   0.000  503.89  451.14  316.53  134.61    0.00    0.00   0.354   0.072   0.012   0.011   0.010   0.005   0.004   0.003   0.003   0.005   0.312
 1992 278   114  18.10  24.80  14.80 -99.000   3.902   3.357   0.525 -99.000 -99.000 -99.000   3.882   3.357   0.525   0.000   0.000  507.79  455.02  319.89  135.13    0.00    0.00   0.381   0.082   0.014   0.013   0.011   0.006   0.005   0.003   0.003   0.006   0.336
 1992 279   115  19.10  25.40  15.00 -99.000   4.154   3.565   0.568 -99.000 -99.000 -99.000   4.053   3.565   0.488   0.000   0.000  511.94  459.07  323.45  135.62    0.00    0.00   0.347   0.081   0.014   0.013   0.011   0.006   0.005   0.003   0.003   0.006   0.357
 1992 280   116  20.20  25.70  14.60 -99.000   4.395   3.761   0.612 -99.000 -99.000 -99.000   4.216   3.761   0.454   0.000   0.000  516.34  463.29  327.21  136.07    0.00    0.00   0.315   0.080   0.013   0.013   0.010   0.006   0.005   0.003   0.003   0.006   0.376
 1992 281   117  18.90  25.70  14.50 -99.000   4.109   3.506   0.583 -99.000 -99.000 -99.000   3.929   3.506   0.423   0.000   0.000  520.45  467.22  330.72  136.50    0.00    0.00   0.287   0.079   0.013   0.012   0.010   0.005   0.005   0.003   0.003   0.006   0.351
 1992 282   118  19.20  26.60  14.60 -99.000   4.223   3.593   0.610 -99.000 -99.000 -99.000   4.203   3.593   0.610   0.000   0.000  524.67  471.42  334.31  137.11    0.00    0.00   0.508   0.066   0.009   0.008   0.006   0.003   0.003   0.002   0.002   0.004   0.359
 1992 283   119  23.40  27.70  14.20 -99.000   5.240   4.442   0.773 -99.000 -99.000 -99.000   5.215   4.442   0.773   0.000   0.000  529.91  476.63  338.75  137.88    0.00    0.00   0.169   0.115   0.034   0.041   0.049   0.038   0.056   0.049   0.055   0.165   0.444
 1992 284   120  12.70  22.20  15.20 -99.000   2.679   2.262   0.403 -99.000 -99.000 -99.000   2.665   2.262   0.403   0.000   0.000  532.59  479.30  341.02  138.28    0.00    0.00   0.090   0.063   0.022   0.024   0.023   0.018   0.028   0.024   0.028   0.082   0.226
 1992 285   121  14.50  25.40  14.10 -99.000   3.161   2.659   0.486 -99.000 -99.000 -99.000   3.145   2.659   0.486   0.000   0.000  535.75  482.44  343.68  138.77    0.00    0.00   0.102   0.075   0.026   0.039   0.028   0.022   0.034   0.029   0.033   0.099   0.266
 1992 286   122  22.10  25.00  13.90 -99.000   4.781   4.005   0.752 -99.000 -99.000 -99.000   4.757   4.005   0.752   0.000   0.000  540.53  487.20  347.68  139.52    0.00    0.00   0.147   0.110   0.038   0.071   0.043   0.034   0.053   0.046   0.052   0.156   0.401
 1992 287   123  25.80  26.60  12.90 -99.000   5.643   4.707   0.908 -99.000 -99.000 -99.000   5.615   4.707   0.908   0.000   0.000  546.18  492.82  352.39  140.43    0.00    0.00   0.756   0.096   0.016   0.017   0.006   0.003   0.004   0.003   0.002   0.004   0.471
 1992 288   124  25.20  27.20  13.20 -99.000   5.562   4.619   0.917 -99.000 -99.000 -99.000   5.536   4.619   0.917   0.000   0.000  551.74  498.35  357.01  141.35    0.00    0.00   0.753   0.103   0.017   0.019   0.007   0.004   0.004   0.003   0.003   0.005   0.462
 1992 289   125  25.10  26.40  13.00 -99.000   5.477   4.525   0.925 -99.000 -99.000 -99.000   5.412   4.525   0.887   0.000   0.000  557.21  503.76  361.53  142.23    0.00    0.00   0.715   0.107   0.018   0.019   0.007   0.004   0.005   0.003   0.003   0.006   0.452
 1992 290   126  23.00  27.40  14.70 -99.000   5.148   4.222   0.903 -99.000 -99.000 -99.000   5.025   4.222   0.803   0.000   0.000  562.36  508.79  365.75  143.04    0.00    0.00   0.641   0.100   0.017   0.018   0.007   0.004   0.005   0.003   0.003   0.006   0.422
 1992 291   127  22.10  27.80  14.30 -99.000   4.958   4.021   0.915 -99.000 -99.000 -99.000   4.741   4.007   0.734   0.000   0.000  567.32  513.53  369.76  143.77    0.00    0.00   0.579   0.095   0.016   0.017   0.007   0.004   0.005   0.003   0.003   0.006   0.401
 1992 292   128  21.80  27.00  13.70 -99.000   4.827   3.866   0.938 -99.000 -99.000 -99.000   4.541   3.866   0.675   0.000   0.000  572.15  518.07  373.63  144.45    0.00    0.00   0.527   0.091   0.015   0.015   0.007   0.004   0.005   0.003   0.003   0.006   0.387
 1992 293   129  22.10  25.80  14.40 -99.000   4.855   3.839   0.994 -99.000 -99.000 -99.000   4.460   3.839   0.621   0.000   0.000  577.00  522.53  377.46  145.07    0.00    0.00   0.479   0.087   0.015   0.014   0.007   0.004   0.005   0.003   0.003   0.006   0.384
 1992 294   130  22.30  23.80  11.50 -99.000   4.673   3.642   1.008 -99.000 -99.000 -99.000   4.214   3.642   0.571   0.000   0.000  581.68  526.75  381.11  145.64    0.00    0.00   0.435   0.083   0.014   0.013   0.006   0.003   0.005   0.003   0.003   0.006   0.364
 1992 295   131  25.90  26.90  10.80 -99.000   5.612   4.322   1.264 -99.000 -99.000 -99.000   3.400   2.874   0.526   0.000   0.000  587.29  530.15  383.98  146.16    0.00    0.00   0.396   0.079   0.013   0.012   0.006   0.003   0.005   0.003   0.003   0.006   0.287
 1992 296   132  25.20  28.10  12.30 -99.000   5.612   4.259   1.328 -99.000 -99.000 -99.000   2.359   1.874   0.485   0.000   0.000  592.90  532.50  385.85  146.65    0.00    0.00   0.360   0.076   0.013   0.011   0.006   0.003   0.005   0.003   0.003   0.006   0.187
 1992 297   133  23.10  28.40  13.30 -99.000   5.210   3.882   1.306 -99.000 -99.000 -99.000   1.857   1.408   0.449   0.000   0.000  598.11  534.36  387.26  147.10    0.00    0.00   0.327   0.074   0.012   0.011   0.006   0.003   0.005   0.003   0.003   0.006   0.141
 1992 298   134  21.60  26.50  13.80 -99.000   4.791   3.491   1.279 -99.000 -99.000 -99.000   1.547   1.130   0.417   0.000   0.000  602.90  535.91  388.39  147.52    0.00    0.00   0.297   0.072   0.012   0.011   0.005   0.003   0.005   0.003   0.003   0.006   0.113
 1992 299   135  25.50  24.50  13.50 -99.000   5.517   3.927   1.567 -99.000 -99.000 -99.000   1.331   0.943   0.388   0.000   0.000  608.42  537.24  389.34  147.90    0.00    0.00   0.270   0.071   0.012   0.011   0.005   0.003   0.005   0.003   0.003   0.006   0.094
 1992 300   136  25.20  25.60  11.90 -99.000   5.464   3.798   1.643 -99.000 -99.000 -99.000   1.170   0.808   0.362   0.000   0.000  613.88  538.41  390.14  148.27    0.00    0.00   0.246   0.069   0.012   0.010   0.005   0.003   0.005   0.003   0.003   0.006   0.081
 1992 301   137  26.60  26.70  10.50 -99.000   5.790   3.922   1.844 -99.000 -99.000 -99.000   1.040   0.702   0.338   0.000   0.000  619.67  539.45  390.85  148.60    0.00    0.00   0.223   0.068   0.011   0.010   0.005   0.003   0.005   0.003   0.003   0.006   0.070
 1992 302   138  25.90  27.00  10.70 -99.000   5.666   3.838   1.805 -99.000 -99.000 -99.000   0.855   0.539   0.316   0.000   0.000  625.34  540.30  391.38  148.92    0.00    0.00   0.203   0.067   0.011   0.010   0.005   0.003   0.005   0.003   0.003   0.006   0.054
 1992 303   139  24.30  27.00  10.10 -99.000   5.288   3.582   1.684 -99.000 -99.000 -99.000   0.676   0.380   0.297   0.000   0.000  630.63  540.98  391.76  149.22    0.00    0.00   0.184   0.067   0.011   0.010   0.005   0.003   0.005   0.003   0.003   0.006   0.038
 1992 304   140  21.50  25.80  12.30 -99.000   4.693   3.179   1.495 -99.000 -99.000 -99.000   0.547   0.267   0.279   0.000   0.000  635.32  541.53  392.03  149.50    0.00    0.00   0.168   0.066   0.011   0.010   0.005   0.003   0.005   0.003   0.003   0.006   0.027
 1992 305   141  24.40  23.80  13.10 -99.000   5.229   3.542   1.666 -99.000 -99.000 -99.000   0.510   0.246   0.264   0.000   0.000  640.55  542.04  392.28  149.76    0.00    0.00   0.152   0.066   0.011   0.010   0.005   0.003   0.005   0.003   0.003   0.006   0.025

*DSSAT Cropping System Model Ver. 4.7.5.008 -release  JAN 15, 2021 21:49:57

*RUN   3        : ERiMA DCC1                MZCER047 ETMZpolo    1
 MODEL          : MZCER047 - Maize
 EXPERIMENT     : ETMZpolo SN MELKSSAL
 DATA PATH      : C:\Users\kpodo\Documents\GitHub\ET_DSS_hist_Eunjin\TEST\
 TREATMENT  1   : ERiMA DCC1                MZCER047
  
!                                                                                                                                                                                        Soil evaporation (mm/d) by soil depth (cm):
!                                                                                                                                                                                        0-5    5-15   15-20   20-35   35-50   50-65   65-81   81-97  97-118 118-200
@YEAR DOY   DAS   SRAA  TMAXA  TMINA    REFA    EOAA    EOPA    EOSA    KCAA    KCBA    KEAA    ETAA    EPAA    ESAA    EFAA    EMAA    EOAC    ETAC    EPAC    ESAC    EFAC    EMAC    ES1D    ES2D    ES3D    ES4D    ES5D    ES6D    ES7D    ES8D    ES9D   ES10D   TRWUD
 1993 165     1  24.40  30.10  14.50 -99.000   6.434   0.000   6.434 -99.000 -99.000 -99.000   1.007   0.000   1.007   0.000   0.000    6.43    1.01    0.00    1.01    0.00    0.00   0.824   0.105   0.017   0.022   0.015   0.008   0.005   0.003   0.003   0.006   0.000
 1993 166     2  21.80  28.80  15.80 -99.000   5.697   0.000   5.697 -99.000 -99.000 -99.000   0.932   0.000   0.932   0.000   0.000   12.13    1.94    0.00    1.94    0.00    0.00   0.749   0.104   0.017   0.022   0.015   0.008   0.005   0.003   0.003   0.006   0.000
 1993 167     3  22.40  30.20  14.40 -99.000   5.863   0.000   5.863 -99.000 -99.000 -99.000   0.863   0.000   0.863   0.000   0.000   17.99    2.80    0.00    2.80    0.00    0.00   0.681   0.104   0.017   0.021   0.015   0.008   0.005   0.003   0.003   0.006   0.000
 1993 168     4  23.20  27.50  16.30 -99.000   5.954   0.000   5.954 -99.000 -99.000 -99.000   0.800   0.000   0.800   0.000   0.000   23.95    3.60    0.00    3.60    0.00    0.00   0.619   0.103   0.017   0.021   0.015   0.008   0.005   0.003   0.003   0.006   0.000
 1993 169     5  21.00  27.30  15.30 -99.000   5.319   0.000   5.319 -99.000 -99.000 -99.000   0.743   0.000   0.743   0.000   0.000   29.27    4.35    0.00    4.35    0.00    0.00   0.563   0.102   0.017   0.021   0.015   0.008   0.005   0.003   0.003   0.006   0.000
 1993 170     6  20.50  28.10  15.40 -99.000   5.230   0.000   5.230 -99.000 -99.000 -99.000   0.691   0.000   0.691   0.000   0.000   34.50    5.04    0.00    5.04    0.00    0.00   0.512   0.102   0.017   0.021   0.015   0.008   0.005   0.003   0.003   0.006   0.000
 1993 171     7  23.20  28.80  16.20 -99.000   5.988   0.000   5.988 -99.000 -99.000 -99.000   0.644   0.000   0.644   0.000   0.000   40.48    5.68    0.00    5.68    0.00    0.00   0.465   0.101   0.017   0.021   0.015   0.008   0.005   0.003   0.003   0.006   0.000
 1993 172     8  20.60  31.10  15.30 -99.000   5.407   0.000   5.407 -99.000 -99.000 -99.000   0.601   0.000   0.601   0.000   0.000   45.89    6.28    0.00    6.28    0.00    0.00   0.423   0.101   0.017   0.021   0.015   0.008   0.005   0.003   0.003   0.006   0.000
 1993 173     9  22.20  30.50  14.80 -99.000   5.752   0.015   5.737 -99.000 -99.000 -99.000   0.577   0.015   0.562   0.000   0.000   51.64    6.86    0.01    6.84    0.00    0.00   0.384   0.100   0.017   0.021   0.015   0.008   0.005   0.003   0.003   0.006   0.001
 1993 174    10  20.10  30.80  13.90 -99.000   5.178   0.026   5.152 -99.000 -99.000 -99.000   0.552   0.026   0.526   0.000   0.000   56.82    7.41    0.04    7.37    0.00    0.00   0.349   0.099   0.017   0.021   0.015   0.008   0.005   0.003   0.003   0.006   0.003
 1993 175    11  20.50  26.70  15.40 -99.000   5.085   0.039   5.046 -99.000 -99.000 -99.000   0.533   0.039   0.494   0.000   0.000   61.91    7.94    0.08    7.86    0.00    0.00   0.318   0.099   0.017   0.021   0.015   0.008   0.005   0.003   0.003   0.006   0.004
 1993 176    12  20.00  24.10  15.30 -99.000   4.797   0.050   4.747 -99.000 -99.000 -99.000   0.514   0.050   0.464   0.000   0.000   66.70    8.46    0.13    8.33    0.00    0.00   0.289   0.098   0.017   0.021   0.015   0.008   0.005   0.003   0.003   0.006   0.005
 1993 177    13  18.20  22.60  13.70 -99.000   4.219   0.075   4.144 -99.000 -99.000 -99.000   0.512   0.075   0.437   0.000   0.000   70.92    8.97    0.20    8.77    0.00    0.00   0.262   0.097   0.017   0.021   0.015   0.008   0.005   0.003   0.003   0.006   0.008
 1993 178    14  19.90  30.00  12.80 -99.000   4.994   0.126   4.868 -99.000 -99.000 -99.000   0.538   0.126   0.412   0.000   0.000   75.92    9.51    0.33    9.18    0.00    0.00   0.239   0.096   0.017   0.021   0.015   0.008   0.005   0.003   0.003   0.006   0.013
 1993 179    15  22.40  30.20  13.50 -99.000   5.650   0.206   5.442 -99.000 -99.000 -99.000   0.572   0.183   0.389   0.000   0.000   81.57   10.08    0.51    9.57    0.00    0.00   0.217   0.095   0.017   0.021   0.015   0.008   0.005   0.003   0.003   0.006   0.018
[...]
 2018 225    61  21.70  24.20  13.60 -99.000   4.582   4.102   0.455 -99.000 -99.000 -99.000   4.539   4.084   0.455   0.000   0.000  268.08  238.95   93.74  145.21    0.00    0.00   0.356   0.054   0.009   0.011   0.009   0.005   0.003   0.002   0.002   0.003   0.408
 2018 226    62  21.40  24.20  13.60 -99.000   4.516   4.060   0.431 -99.000 -99.000 -99.000   4.492   4.060   0.431   0.000   0.000  272.60  243.44   97.80  145.64    0.00    0.00   0.335   0.053   0.009   0.010   0.009   0.005   0.003   0.002   0.002   0.003   0.406
 2018 227    63  21.70  24.20  13.60 -99.000   4.577   4.128   0.424 -99.000 -99.000 -99.000   4.552   4.128   0.424   0.000   0.000  277.18  247.99  101.92  146.07    0.00    0.00   0.327   0.054   0.009   0.009   0.009   0.005   0.003   0.002   0.002   0.004   0.413
 2018 228    64  21.80  24.20  13.60 -99.000   4.596   4.156   0.416 -99.000 -99.000 -99.000   4.571   4.156   0.416   0.000   0.000  281.77  252.56  106.08  146.48    0.00    0.00   0.347   0.038   0.006   0.006   0.006   0.004   0.002   0.002   0.001   0.003   0.416
 2018 229    65  14.70  24.20  13.60 -99.000   3.105   2.813   0.276 -99.000 -99.000 -99.000   3.089   2.813   0.276   0.000   0.000  284.88  255.65  108.89  146.76    0.00    0.00   0.059   0.029   0.009   0.016   0.023   0.022   0.021   0.018   0.020   0.057   0.281
 2018 230    66  15.40  24.20  13.60 -99.000   3.253   2.950   0.285 -99.000 -99.000 -99.000   3.236   2.950   0.285   0.000   0.000  288.13  258.89  111.84  147.04    0.00    0.00   0.061   0.033   0.009   0.017   0.023   0.023   0.021   0.018   0.021   0.058   0.295
 2018 231    67  16.50  24.20  13.60 -99.000   3.485   3.164   0.302 -99.000 -99.000 -99.000   3.466   3.164   0.302   0.000   0.000  291.62  262.35  115.01  147.35    0.00    0.00   0.066   0.038   0.010   0.017   0.023   0.023   0.022   0.019   0.022   0.061   0.316
 2018 232    68  17.20  24.20  13.60 -99.000   3.633   3.301   0.313 -99.000 -99.000 -99.000   3.614   3.301   0.313   0.000   0.000  295.25  265.97  118.31  147.66    0.00    0.00   0.070   0.043   0.010   0.018   0.023   0.023   0.023   0.020   0.022   0.062   0.330
 2018 233    69  17.70  24.20  13.60 -99.000   3.739   3.400   0.319 -99.000 -99.000 -99.000   3.719   3.400   0.319   0.000   0.000  298.99  269.69  121.71  147.98    0.00    0.00   0.073   0.049   0.014   0.019   0.021   0.022   0.022   0.019   0.021   0.059   0.340
 2018 234    70  21.70  24.20  13.60 -99.000   4.587   4.173   0.389 -99.000 -99.000 -99.000   4.562   4.173   0.389   0.000   0.000  303.58  274.25  125.88  148.37    0.00    0.00   0.088   0.063   0.022   0.029   0.024   0.025   0.025   0.022   0.024   0.068   0.417
 2018 235    71  15.20  24.20  13.60 -99.000   3.213   2.924   0.271 -99.000 -99.000 -99.000   3.195   2.924   0.271   0.000   0.000  306.79  277.44  128.80  148.64    0.00    0.00   0.061   0.042   0.015   0.025   0.016   0.017   0.017   0.015   0.017   0.047   0.292
 2018 236    72  16.90  24.20  13.60 -99.000   3.572   3.253   0.300 -99.000 -99.000 -99.000   3.553   3.253   0.300   0.000   0.000  310.36  281.00  132.06  148.94    0.00    0.00   0.067   0.045   0.017   0.031   0.019   0.018   0.019   0.016   0.018   0.051   0.325
 2018 237    73  17.80  24.20  13.60 -99.000   3.762   3.427   0.314 -99.000 -99.000 -99.000   3.742   3.427   0.314   0.000   0.000  314.12  284.74  135.48  149.25    0.00    0.00   0.062   0.045   0.016   0.034   0.024   0.020   0.020   0.018   0.020   0.056   0.343
 2018 238    74  20.60  24.20  13.60 -99.000   4.349   3.964   0.362 -99.000 -99.000 -99.000   4.326   3.964   0.362   0.000   0.000  318.47  289.06  139.45  149.61    0.00    0.00   0.075   0.051   0.018   0.038   0.030   0.022   0.023   0.020   0.022   0.063   0.396
 2018 239    75  15.70  24.20  13.60 -99.000   3.318   3.025   0.274 -99.000 -99.000 -99.000   3.300   3.025   0.274   0.000   0.000  321.79  292.36  142.47  149.89    0.00    0.00   0.059   0.041   0.014   0.028   0.024   0.016   0.016   0.014   0.016   0.045   0.303
 2018 240    76  18.90  24.20  13.60 -99.000   3.995   3.636   0.338 -99.000 -99.000 -99.000   3.974   3.636   0.338   0.000   0.000  325.79  296.34  146.11  150.23    0.00    0.00   0.072   0.052   0.018   0.036   0.030   0.020   0.020   0.017   0.019   0.054   0.364
 2018 241    77  18.50  24.20  13.60 -99.000   3.912   3.553   0.338 -99.000 -99.000 -99.000   3.891   3.553   0.338   0.000   0.000  329.70  300.23  149.66  150.56    0.00    0.00   0.070   0.051   0.017   0.037   0.031   0.023   0.020   0.017   0.019   0.053   0.355
 2018 242    78  17.50  24.20  13.60 -99.000   3.702   3.355   0.327 -99.000 -99.000 -99.000   3.682   3.355   0.327   0.000   0.000  333.40  303.91  153.02  150.89    0.00    0.00   0.060   0.045   0.015   0.036   0.031   0.024   0.020   0.018   0.020   0.057   0.335
 2018 243    79  18.50  24.20  13.60 -99.000   3.910   3.537   0.352 -99.000 -99.000 -99.000   3.889   3.537   0.352   0.000   0.000  337.31  307.80  156.55  151.24    0.00    0.00   0.062   0.047   0.016   0.037   0.033   0.027   0.023   0.020   0.022   0.066   0.354
 2018 244    80  19.90  24.20  13.60 -99.000   4.206   3.797   0.386 -99.000 -99.000 -99.000   4.183   3.797   0.386   0.000   0.000  341.52  311.98  160.35  151.63    0.00    0.00   0.066   0.050   0.017   0.041   0.036   0.029   0.025   0.022   0.025   0.074   0.380
 2018 245    81  22.70  24.30  13.60 -99.000   4.803   4.329   0.448 -99.000 -99.000 -99.000   4.777   4.329   0.448   0.000   0.000  346.32  316.76  164.68  152.08    0.00    0.00   0.075   0.057   0.019   0.047   0.042   0.034   0.030   0.026   0.030   0.087   0.433
 2018 246    82  23.10  24.30  13.60 -99.000   4.888   4.398   0.464 -99.000 -99.000 -99.000   4.862   4.398   0.464   0.000   0.000  351.21  321.62  169.08  152.54    0.00    0.00   0.075   0.057   0.019   0.049   0.044   0.036   0.032   0.028   0.031   0.092   0.440
 2018 247    83  22.70  24.30  13.50 -99.000   4.799   4.312   0.462 -99.000 -99.000 -99.000   4.773   4.312   0.462   0.000   0.000  356.01  326.39  173.39  153.00    0.00    0.00   0.072   0.055   0.019   0.048   0.044   0.036   0.032   0.028   0.032   0.094   0.431
 2018 248    84  19.50  24.30  13.50 -99.000   4.123   3.698   0.402 -99.000 -99.000 -99.000   4.100   3.698   0.402   0.000   0.000  360.13  330.49  177.09  153.40    0.00    0.00   0.061   0.047   0.016   0.042   0.038   0.031   0.029   0.025   0.028   0.084   0.370
 2018 249    85  19.70  24.40  13.50 -99.000   4.170   3.736   0.411 -99.000 -99.000 -99.000   4.148   3.736   0.411   0.000   0.000  364.30  334.64  180.82  153.82    0.00    0.00   0.061   0.047   0.016   0.042   0.039   0.032   0.030   0.026   0.030   0.088   0.374
 2018 250    86  19.00  24.40  13.50 -99.000   4.022   3.600   0.401 -99.000 -99.000 -99.000   4.001   3.600   0.401   0.000   0.000  368.32  338.64  184.42  154.22    0.00    0.00   0.059   0.045   0.015   0.040   0.037   0.031   0.030   0.026   0.029   0.087   0.360
 2018 251    87  21.60  24.40  13.50 -99.000   4.573   4.089   0.459 -99.000 -99.000 -99.000   4.548   4.089   0.459   0.000   0.000  372.89  343.19  188.51  154.68    0.00    0.00   0.067   0.052   0.018   0.045   0.042   0.035   0.035   0.030   0.034   0.101   0.409
 2018 252    88  21.90  24.40  13.50 -99.000   4.636   4.143   0.468 -99.000 -99.000 -99.000   4.611   4.143   0.468   0.000   0.000  377.53  347.80  192.66  155.14    0.00    0.00   0.068   0.053   0.018   0.045   0.042   0.035   0.036   0.031   0.035   0.105   0.414
 2018 253    89  21.80  24.40  13.50 -99.000   4.615   4.123   0.467 -99.000 -99.000 -99.000   4.590   4.123   0.467   0.000   0.000  382.14  352.39  196.78  155.61    0.00    0.00   0.068   0.053   0.018   0.043   0.041   0.035   0.036   0.032   0.036   0.106   0.412
 2018 254    90  20.40  24.50  13.40 -99.000   4.320   3.859   0.438 -99.000 -99.000 -99.000   4.297   3.859   0.438   0.000   0.000  386.46  356.69  200.64  156.05    0.00    0.00   0.355   0.046   0.008   0.010   0.006   0.003   0.003   0.002   0.002   0.003   0.386
 2018 255    91  19.70  24.50  13.40 -99.000   4.171   3.726   0.423 -99.000 -99.000 -99.000   4.149   3.726   0.423   0.000   0.000  390.64  360.84  204.37  156.47    0.00    0.00   0.341   0.047   0.008   0.010   0.006   0.003   0.003   0.002   0.002   0.003   0.373
 2018 256    92  20.10  24.50  13.40 -99.000   4.255   3.801   0.431 -99.000 -99.000 -99.000   4.232   3.801   0.431   0.000   0.000  394.89  365.07  208.17  156.90    0.00    0.00   0.345   0.049   0.008   0.010   0.006   0.003   0.003   0.002   0.002   0.003   0.380
 2018 257    93  22.90  24.60  13.30 -99.000   4.849   4.332   0.491 -99.000 -99.000 -99.000   4.812   4.320   0.491   0.000   0.000  399.74  369.88  212.49  157.39    0.00    0.00   0.390   0.058   0.010   0.011   0.007   0.004   0.003   0.002   0.002   0.004   0.432
 2018 258    94  21.80  24.60  13.30 -99.000   4.615   4.123   0.468 -99.000 -99.000 -99.000   4.590   4.123   0.468   0.000   0.000  404.36  374.47  216.61  157.86    0.00    0.00   0.393   0.048   0.007   0.006   0.004   0.002   0.002   0.001   0.001   0.002   0.412
 2018 259    95  22.40  24.70  13.20 -99.000   4.763   4.254   0.483 -99.000 -99.000 -99.000   4.737   4.254   0.483   0.000   0.000  409.12  379.21  220.86  158.34    0.00    0.00   0.113   0.078   0.025   0.037   0.026   0.023   0.031   0.027   0.031   0.091   0.425
 2018 260    96  21.00  24.70  13.20 -99.000   4.464   3.988   0.452 -99.000 -99.000 -99.000   4.441   3.988   0.452   0.000   0.000  413.58  383.65  224.85  158.80    0.00    0.00   0.091   0.068   0.023   0.046   0.026   0.022   0.030   0.027   0.030   0.089   0.399
 2018 261    97  19.20  24.80  13.10 -99.000   4.079   3.644   0.413 -99.000 -99.000 -99.000   4.057   3.644   0.413   0.000   0.000  417.66  387.71  228.50  159.21    0.00    0.00   0.078   0.059   0.020   0.045   0.026   0.020   0.029   0.025   0.028   0.083   0.364
 2018 262    98  22.30  24.80  13.10 -99.000   4.735   4.230   0.480 -99.000 -99.000 -99.000   4.710   4.230   0.480   0.000   0.000  422.40  392.42  232.73  159.69    0.00    0.00   0.397   0.051   0.008   0.011   0.004   0.002   0.002   0.001   0.001   0.002   0.423
 2018 263    99  20.90  24.90  13.00 -99.000   4.438   3.965   0.450 -99.000 -99.000 -99.000   4.414   3.965   0.450   0.000   0.000  426.83  396.83  236.69  160.14    0.00    0.00   0.370   0.049   0.008   0.011   0.004   0.002   0.002   0.001   0.001   0.002   0.396
 2018 264   100  23.60  25.00  13.00 -99.000   5.016   4.481   0.508 -99.000 -99.000 -99.000   4.989   4.481   0.508   0.000   0.000  431.85  401.82  241.17  160.65    0.00    0.00   0.414   0.057   0.009   0.012   0.004   0.002   0.003   0.002   0.002   0.003   0.448
 2018 265   101  19.20  25.00  12.90 -99.000   4.076   3.641   0.413 -99.000 -99.000 -99.000   4.054   3.641   0.413   0.000   0.000  435.93  405.87  244.81  161.06    0.00    0.00   0.333   0.048   0.008   0.011   0.004   0.002   0.002   0.002   0.001   0.003   0.364
 2018 266   102  23.20  25.10  12.80 -99.000   4.926   4.400   0.499 -99.000 -99.000 -99.000   4.899   4.400   0.499   0.000   0.000  440.85  410.77  249.21  161.56    0.00    0.00   0.401   0.059   0.010   0.013   0.005   0.002   0.003   0.002   0.002   0.003   0.440
 2018 267   103  20.10  25.20  12.80 -99.000   4.272   3.816   0.433 -99.000 -99.000 -99.000   4.249   3.816   0.433   0.000   0.000  445.12  415.02  253.03  161.99    0.00    0.00   0.347   0.051   0.009   0.011   0.004   0.002   0.003   0.002   0.002   0.003   0.382
 2018 268   104  23.90  25.30  12.70 -99.000   5.081   4.538   0.516 -99.000 -99.000 -99.000   5.054   4.538   0.516   0.000   0.000  450.20  420.07  257.57  162.51    0.00    0.00   0.411   0.062   0.010   0.013   0.005   0.002   0.003   0.002   0.002   0.004   0.454
 2018 269   105  20.50  25.30  12.60 -99.000   4.354   3.888   0.443 -99.000 -99.000 -99.000   4.330   3.888   0.443   0.000   0.000  454.56  424.41  261.45  162.95    0.00    0.00   0.351   0.055   0.009   0.011   0.004   0.002   0.003   0.002   0.002   0.003   0.389
 2018 270   106  23.50  25.40  12.50 -99.000   4.992   4.457   0.509 -99.000 -99.000 -99.000   4.955   4.446   0.509   0.000   0.000  459.55  429.36  265.90  163.46    0.00    0.00   0.401   0.065   0.011   0.012   0.005   0.003   0.004   0.002   0.002   0.004   0.445
 2018 271   107  24.50  25.50  12.40 -99.000   5.206   4.646   0.532 -99.000 -99.000 -99.000   5.178   4.646   0.532   0.000   0.000  464.76  434.54  270.55  163.99    0.00    0.00   0.416   0.071   0.012   0.012   0.005   0.003   0.004   0.003   0.002   0.005   0.465
 2018 272   108  22.10  25.60  12.40 -99.000   4.701   4.193   0.483 -99.000 -99.000 -99.000   4.676   4.193   0.483   0.000   0.000  469.46  439.21  274.74  164.48    0.00    0.00   0.375   0.066   0.011   0.010   0.005   0.003   0.004   0.003   0.002   0.004   0.419
 2018 273   109  23.50  25.60  12.30 -99.000   4.994   4.452   0.515 -99.000 -99.000 -99.000   3.318   2.803   0.515   0.000   0.000  474.45  442.53  277.54  164.99    0.00    0.00   0.397   0.072   0.012   0.011   0.005   0.003   0.004   0.003   0.003   0.005   0.280
 2018 274   110  22.60  25.70  12.20 -99.000   4.807   4.264   0.517 -99.000 -99.000 -99.000   2.362   1.845   0.517   0.000   0.000  479.26  444.89  279.39  165.51    0.00    0.00   0.432   0.052   0.009   0.008   0.004   0.002   0.003   0.002   0.002   0.004   0.184
 2018 275   111  23.20  25.00  12.40 -99.000   4.917   4.327   0.564 -99.000 -99.000 -99.000   4.244   3.680   0.564   0.000   0.000  484.18  449.14  283.07  166.07    0.00    0.00   0.492   0.044   0.007   0.007   0.003   0.002   0.003   0.002   0.002   0.003   0.368
 2018 276   112  22.20  25.10  12.30 -99.000   4.699   4.132   0.542 -99.000 -99.000 -99.000   1.778   1.236   0.542   0.000   0.000  488.88  450.92  284.30  166.61    0.00    0.00   0.442   0.061   0.010   0.009   0.004   0.002   0.004   0.003   0.002   0.005   0.124
 2018 277   113  21.80  25.20  12.20 -99.000   4.621   4.021   0.575 -99.000 -99.000 -99.000   1.594   1.019   0.575   0.000   0.000  493.50  452.51  285.32  167.19    0.00    0.00   0.463   0.068   0.011   0.010   0.005   0.003   0.005   0.003   0.003   0.005   0.102
 2018 278   114  22.10  25.20  12.10 -99.000   4.686   4.031   0.630 -99.000 -99.000 -99.000   1.428   0.865   0.563   0.000   0.000  498.18  453.94  286.19  167.75    0.00    0.00   0.446   0.070   0.012   0.010   0.005   0.003   0.005   0.003   0.003   0.006   0.087
 2018 279   115  24.50  25.30  12.10 -99.000   5.207   4.422   0.758 -99.000 -99.000 -99.000   1.270   0.749   0.521   0.000   0.000  503.39  455.21  286.94  168.27    0.00    0.00   0.406   0.069   0.011   0.010   0.005   0.003   0.005   0.003   0.003   0.006   0.075
 2018 280   116  24.80  25.30  12.00 -99.000   5.273   4.415   0.831 -99.000 -99.000 -99.000   1.060   0.577   0.482   0.000   0.000  508.66  456.27  287.51  168.75    0.00    0.00   0.369   0.068   0.011   0.010   0.005   0.003   0.005   0.003   0.003   0.006   0.058
 2018 281   117  20.90  25.40  11.90 -99.000   4.452   3.670   0.759 -99.000 -99.000 -99.000   0.916   0.468   0.448   0.000   0.000  513.11  457.18  287.98  169.20    0.00    0.00   0.335   0.067   0.011   0.010   0.005   0.003   0.005   0.003   0.003   0.006   0.047
 2018 282   118  23.40  25.50  11.80 -99.000   4.993   4.050   0.919 -99.000 -99.000 -99.000   0.702   0.285   0.417   0.000   0.000  518.11  457.89  288.27  169.62    0.00    0.00   0.305   0.067   0.011   0.010   0.005   0.003   0.005   0.003   0.003   0.006   0.029
 2018 283   119  25.70  25.50  11.70 -99.000   5.488   4.370   1.092 -99.000 -99.000 -99.000   0.643   0.255   0.388   0.000   0.000  523.59  458.53  288.52  170.01    0.00    0.00   0.277   0.066   0.011   0.010   0.005   0.003   0.005   0.003   0.003   0.006   0.025
 2018 284   120  26.40  25.50  11.70 -99.000   5.647   4.408   1.212 -99.000 -99.000 -99.000   0.598   0.236   0.363   0.000   0.000  529.24  459.13  288.76  170.37    0.00    0.00   0.252   0.066   0.011   0.010   0.005   0.003   0.005   0.003   0.003   0.006   0.024
 2018 285   121  22.10  25.60  11.60 -99.000   4.738   3.622   1.094 -99.000 -99.000 -99.000   0.558   0.219   0.339   0.000   0.000  533.98  459.69  288.98  170.71    0.00    0.00   0.229   0.066   0.011   0.010   0.005   0.003   0.005   0.003   0.003   0.006   0.022
 2018 286   122  23.90  25.60  11.50 -99.000   5.128   3.836   1.268 -99.000 -99.000 -99.000   0.523   0.205   0.318   0.000   0.000  539.11  460.21  289.18  171.03    0.00    0.00   0.208   0.065   0.011   0.010   0.004   0.002   0.005   0.003   0.003   0.006   0.020
 2018 287   123  22.00  25.60  11.50 -99.000   4.729   3.458   1.250 -99.000 -99.000 -99.000   0.491   0.192   0.299   0.000   0.000  543.84  460.70  289.37  171.33    0.00    0.00   0.189   0.065   0.011   0.010   0.004   0.002   0.005   0.003   0.003   0.006   0.019
 2018 288   124  17.70  25.70  11.40 -99.000   3.813   2.724   1.073 -99.000 -99.000 -99.000   0.587   0.079   0.508   0.000   0.000  547.65  461.29  289.45  171.83    0.00    0.00   0.399   0.065   0.011   0.010   0.004   0.002   0.005   0.003   0.003   0.006   0.008
 2018 289   125  24.80  25.70  11.30 -99.000   5.386   3.755   1.608 -99.000 -99.000 -99.000   0.789   0.090   0.699   0.000   0.000  553.04  462.08  289.54  172.53    0.00    0.00   0.590   0.064   0.011   0.010   0.004   0.002   0.005   0.003   0.003   0.006   0.009
 2018 290   126  22.50  25.70  11.30 -99.000   4.894   3.325   1.549 -99.000 -99.000 -99.000   0.637   0.000   0.637   0.000   0.000  557.93  462.71  289.54  173.17    0.00    0.00   0.529   0.064   0.011   0.010   0.004   0.002   0.005   0.003   0.003   0.006   0.000
 2018 291   127  24.10  25.70  11.20 -99.000   5.248   3.467   1.759 -99.000 -99.000 -99.000   0.588   0.000   0.588   0.000   0.000  563.18  463.30  289.54  173.76    0.00    0.00   0.480   0.063   0.011   0.010   0.004   0.002   0.005   0.003   0.003   0.006   0.000
 2018 292   128  21.20  25.70  11.20 -99.000   4.624   2.969   1.637 -99.000 -99.000 -99.000   0.544   0.000   0.544   0.000   0.000  567.80  463.85  289.54  174.30    0.00    0.00   0.437   0.063   0.011   0.010   0.004   0.002   0.005   0.003   0.003   0.006   0.000
 2018 293   129  24.60  25.60  11.10 -99.000   5.365   3.344   2.000 -99.000 -99.000 -99.000   0.504   0.000   0.504   0.000   0.000  573.17  464.35  289.54  174.81    0.00    0.00   0.397   0.063   0.011   0.010   0.004   0.002   0.005   0.003   0.003   0.006   0.000
 2018 294   130  25.60  25.60  11.10 -99.000   5.593   3.381   2.191 -99.000 -99.000 -99.000   0.467   0.000   0.467   0.000   0.000  578.76  464.82  289.54  175.27    0.00    0.00   0.361   0.062   0.011   0.010   0.004   0.002   0.005   0.003   0.003   0.006   0.000
 2018 295   131  26.40  25.60  11.00 -99.000   5.773   3.382   2.370 -99.000 -99.000 -99.000   0.434   0.000   0.434   0.000   0.000  584.53  465.25  289.54  175.71    0.00    0.00   0.328   0.062   0.011   0.010   0.004   0.002   0.005   0.003   0.003   0.006   0.000
 2018 296   132  21.50  25.60  11.00 -99.000   4.710   2.672   2.022 -99.000 -99.000 -99.000   0.404   0.000   0.404   0.000   0.000  589.24  465.65  289.54  176.11    0.00    0.00   0.298   0.062   0.011   0.010   0.004   0.002   0.005   0.003   0.003   0.006   0.000
 2018 297   133  23.80  25.50  11.00 -99.000   5.217   2.863   2.336 -99.000 -99.000 -99.000   0.376   0.000   0.376   0.000   0.000  594.46  466.03  289.54  176.49    0.00    0.00   0.271   0.061   0.011   0.010   0.004   0.002   0.005   0.003   0.003   0.006   0.000
 2018 298   134  23.00  25.50  10.90 -99.000   5.034   2.763   2.254 -99.000 -99.000 -99.000   0.351   0.000   0.351   0.000   0.000  599.50  466.38  289.54  176.84    0.00    0.00   0.246   0.061   0.011   0.010   0.004   0.002   0.005   0.003   0.003   0.006   0.000
