*MANAGEMENT OPERATIONS DAILY OUTPUT FILE

*DSSAT Cropping System Model Ver. 4.7.5.008 -release  JAN 15, 2021 21:49:57

*RUN   1        : ERiMA DCC1                MZCER047 ETMZpolo    1
 MODEL          : MZCER047 - Maize
 EXPERIMENT     : ETMZpolo SN MELKSSAL
 DATA PATH      : C:\Users\kpodo\Documents\GitHub\ET_DSS_hist_Eunjin\TEST\
 TREATMENT  1   : ERiMA DCC1                MZCER047
  

@YEAR DOY   DAS   DAP  NAPC  NICM  R#AC RESNC RESPC
 1991 165     1     0     0     0     0     0     0
 1991 166     2     0     1    30     0     0     0
 1991 167     3     1     1    30     0     0     0
 1991 168     4     2     1    30     0     0     0
 1991 169     5     3     1    30     0     0     0
 1991 170     6     4     1    30     0     0     0
 1991 171     7     5     1    30     0     0     0
 1991 172     8     6     1    30     0     0     0
 1991 173     9     7     1    30     0     0     0
 1991 174    10     8     1    30     0     0     0
 1991 175    11     9     1    30     0     0     0
 1991 176    12    10     1    30     0     0     0
 1991 177    13    11     1    30     0     0     0
 1991 178    14    12     1    30     0     0     0
 1991 179    15    13     1    30     0     0     0
 1991 180    16    14     1    30     0     0     0
 1991 181    17    15     1    30     0     0     0
 1991 182    18    16     1    30     0     0     0
 1991 183    19    17     1    30     0     0     0
 1991 184    20    18     1    30     0     0     0
 1991 185    21    19     1    30     0     0     0
 1991 186    22    20     1    30     0     0     0
 1991 187    23    21     1    30     0     0     0
 1991 188    24    22     1    30     0     0     0
 1991 189    25    23     1    30     0     0     0
 1991 190    26    24     1    30     0     0     0
 1991 191    27    25     1    30     0     0     0
 1991 192    28    26     1    30     0     0     0
 1991 193    29    27     1    30     0     0     0
 1991 194    30    28     1    30     0     0     0
 1991 195    31    29     1    30     0     0     0
 1991 196    32    30     1    30     0     0     0
 1991 197    33    31     1    30     0     0     0
 1991 198    34    32     1    30     0     0     0
 1991 199    35    33     1    30     0     0     0
 1991 200    36    34     1    30     0     0     0
 1991 201    37    35     1    30     0     0     0
 1991 202    38    36     1    30     0     0     0
 1991 203    39    37     1    30     0     0     0
 1991 204    40    38     1    30     0     0     0
 1991 205    41    39     1    30     0     0     0
 1991 206    42    40     1    30     0     0     0
 1991 207    43    41     1    30     0     0     0
 1991 208    44    42     1    30     0     0     0
 1991 209    45    43     1    30     0     0     0
 1991 210    46    44     1    30     0     0     0
 1991 211    47    45     2    60     0     0     0
 1991 212    48    46     2    60     0     0     0
 1991 213    49    47     2    60     0     0     0
 1991 214    50    48     2    60     0     0     0
 1991 215    51    49     2    60     0     0     0
 1991 216    52    50     2    60     0     0     0
 1991 217    53    51     2    60     0     0     0
 1991 218    54    52     2    60     0     0     0
 1991 219    55    53     2    60     0     0     0
 1991 220    56    54     2    60     0     0     0
 1991 221    57    55     2    60     0     0     0
 1991 222    58    56     2    60     0     0     0
 1991 223    59    57     2    60     0     0     0
 1991 224    60    58     2    60     0     0     0
 1991 225    61    59     2    60     0     0     0
 1991 226    62    60     2    60     0     0     0
 1991 227    63    61     2    60     0     0     0
 1991 228    64    62     2    60     0     0     0
 1991 229    65    63     2    60     0     0     0
 1991 230    66    64     2    60     0     0     0
 1991 231    67    65     2    60     0     0     0
 1991 232    68    66     2    60     0     0     0
 1991 233    69    67     2    60     0     0     0
 1991 234    70    68     2    60     0     0     0
 1991 235    71    69     2    60     0     0     0
 1991 236    72    70     2    60     0     0     0
 1991 237    73    71     2    60     0     0     0
 1991 238    74    72     2    60     0     0     0
 1991 239    75    73     2    60     0     0     0
 1991 240    76    74     2    60     0     0     0
 1991 241    77    75     2    60     0     0     0
 1991 242    78    76     2    60     0     0     0
 1991 243    79    77     2    60     0     0     0
 1991 244    80    78     2    60     0     0     0
 1991 245    81    79     2    60     0     0     0
 1991 246    82    80     2    60     0     0     0
 1991 247    83    81     2    60     0     0     0
 1991 248    84    82     2    60     0     0     0
 1991 249    85    83     2    60     0     0     0
 1991 250    86    84     2    60     0     0     0
 1991 251    87    85     2    60     0     0     0
 1991 252    88    86     2    60     0     0     0
 1991 253    89    87     2    60     0     0     0
 1991 254    90    88     2    60     0     0     0
 1991 255    91    89     2    60     0     0     0
 1991 256    92    90     2    60     0     0     0
 1991 257    93    91     2    60     0     0     0
 1991 258    94    92     2    60     0     0     0
 1991 259    95    93     2    60     0     0     0
 1991 260    96    94     2    60     0     0     0
 1991 261    97    95     2    60     0     0     0
 1991 262    98    96     2    60     0     0     0
 1991 263    99    97     2    60     0     0     0
 1991 264   100    98     2    60     0     0     0
 1991 265   101    99     2    60     0     0     0
 1991 266   102   100     2    60     0     0     0
 1991 267   103   101     2    60     0     0     0
 1991 268   104   102     2    60     0     0     0
 1991 269   105   103     2    60     0     0     0
 1991 270   106   104     2    60     0     0     0
 1991 271   107   105     2    60     0     0     0
 1991 272   108   106     2    60     0     0     0
 1991 273   109   107     2    60     0     0     0
 1991 274   110   108     2    60     0     0     0
 1991 275   111   109     2    60     0     0     0
 1991 276   112   110     2    60     0     0     0
 1991 277   113   111     2    60     0     0     0
 1991 278   114   112     2    60     0     0     0
 1991 279   115   113     2    60     0     0     0
 1991 280   116   114     2    60     0     0     0
 1991 281   117   115     2    60     0     0     0
 1991 282   118   116     2    60     0     0     0
 1991 283   119   117     2    60     0     0     0
 1991 284   120   118     2    60     0     0     0
 1991 285   121   119     2    60     0     0     0
 1991 286   122   120     2    60     0     0     0
 1991 287   123   121     2    60     0     0     0
 1991 288   124   122     2    60     0     0     0
 1991 289   125   123     2    60     0     0     0
 1991 290   126   124     2    60     0     0     0
 1991 291   127   125     2    60     0     0     0
 1991 292   128   126     2    60     0     0     0

*DSSAT Cropping System Model Ver. 4.7.5.008 -release  JAN 15, 2021 21:49:57

*RUN   2        : ERiMA DCC1                MZCER047 ETMZpolo    1
 MODEL          : MZCER047 - Maize
 EXPERIMENT     : ETMZpolo SN MELKSSAL
 DATA PATH      : C:\Users\kpodo\Documents\GitHub\ET_DSS_hist_Eunjin\TEST\
 TREATMENT  1   : ERiMA DCC1                MZCER047
  

@YEAR DOY   DAS   DAP  NAPC  NICM  R#AC RESNC RESPC
 1992 165     1     0     0     0     0     0     0
 1992 166     2     0     1    30     0     0     0
 1992 167     3     1     1    30     0     0     0
 1992 168     4     2     1    30     0     0     0
 1992 169     5     3     1    30     0     0     0
 1992 170     6     4     1    30     0     0     0
 1992 171     7     5     1    30     0     0     0
 1992 172     8     6     1    30     0     0     0
 1992 173     9     7     1    30     0     0     0
 1992 174    10     8     1    30     0     0     0
 1992 175    11     9     1    30     0     0     0
 1992 176    12    10     1    30     0     0     0
 1992 177    13    11     1    30     0     0     0
 1992 178    14    12     1    30     0     0     0
 1992 179    15    13     1    30     0     0     0
 1992 180    16    14     1    30     0     0     0
 1992 181    17    15     1    30     0     0     0
 1992 182    18    16     1    30     0     0     0
 1992 183    19    17     1    30     0     0     0
 1992 184    20    18     1    30     0     0     0
 1992 185    21    19     1    30     0     0     0
 1992 186    22    20     1    30     0     0     0
 1992 187    23    21     1    30     0     0     0
 1992 188    24    22     1    30     0     0     0
 1992 189    25    23     1    30     0     0     0
 1992 190    26    24     1    30     0     0     0
 1992 191    27    25     1    30     0     0     0
 1992 192    28    26     1    30     0     0     0
 1992 193    29    27     1    30     0     0     0
 1992 194    30    28     1    30     0     0     0
 1992 195    31    29     1    30     0     0     0
 1992 196    32    30     1    30     0     0     0
 1992 197    33    31     1    30     0     0     0
 1992 198    34    32     1    30     0     0     0
 1992 199    35    33     1    30     0     0     0
 1992 200    36    34     1    30     0     0     0
 1992 201    37    35     1    30     0     0     0
 1992 202    38    36     1    30     0     0     0
 1992 203    39    37     1    30     0     0     0
 1992 204    40    38     1    30     0     0     0
 1992 205    41    39     1    30     0     0     0
 1992 206    42    40     1    30     0     0     0
 1992 207    43    41     1    30     0     0     0
 1992 208    44    42     1    30     0     0     0
 1992 209    45    43     1    30     0     0     0
 1992 210    46    44     1    30     0     0     0
 1992 211    47    45     2    60     0     0     0
 1992 212    48    46     2    60     0     0     0
 1992 213    49    47     2    60     0     0     0
 1992 214    50    48     2    60     0     0     0
 1992 215    51    49     2    60     0     0     0
 1992 216    52    50     2    60     0     0     0
 1992 217    53    51     2    60     0     0     0
 1992 218    54    52     2    60     0     0     0
 1992 219    55    53     2    60     0     0     0
 1992 220    56    54     2    60     0     0     0
 1992 221    57    55     2    60     0     0     0
 1992 222    58    56     2    60     0     0     0
 1992 223    59    57     2    60     0     0     0
 1992 224    60    58     2    60     0     0     0
 1992 225    61    59     2    60     0     0     0
 1992 226    62    60     2    60     0     0     0
 1992 227    63    61     2    60     0     0     0
 1992 228    64    62     2    60     0     0     0
 1992 229    65    63     2    60     0     0     0
 1992 230    66    64     2    60     0     0     0
 1992 231    67    65     2    60     0     0     0
 1992 232    68    66     2    60     0     0     0
 1992 233    69    67     2    60     0     0     0
 1992 234    70    68     2    60     0     0     0
 1992 235    71    69     2    60     0     0     0
 1992 236    72    70     2    60     0     0     0
 1992 237    73    71     2    60     0     0     0
 1992 238    74    72     2    60     0     0     0
 1992 239    75    73     2    60     0     0     0
 1992 240    76    74     2    60     0     0     0
 1992 241    77    75     2    60     0     0     0
 1992 242    78    76     2    60     0     0     0
 1992 243    79    77     2    60     0     0     0
 1992 244    80    78     2    60     0     0     0
 1992 245    81    79     2    60     0     0     0
 1992 246    82    80     2    60     0     0     0
 1992 247    83    81     2    60     0     0     0
 1992 248    84    82     2    60     0     0     0
 1992 249    85    83     2    60     0     0     0
 1992 250    86    84     2    60     0     0     0
 1992 251    87    85     2    60     0     0     0
 1992 252    88    86     2    60     0     0     0
 1992 253    89    87     2    60     0     0     0
 1992 254    90    88     2    60     0     0     0
 1992 255    91    89     2    60     0     0     0
 1992 256    92    90     2    60     0     0     0
 1992 257    93    91     2    60     0     0     0
 1992 258    94    92     2    60     0     0     0
 1992 259    95    93     2    60     0     0     0
 1992 260    96    94     2    60     0     0     0
 1992 261    97    95     2    60     0     0     0
 1992 262    98    96     2    60     0     0     0
 1992 263    99    97     2    60     0     0     0
 1992 264   100    98     2    60     0     0     0
 1992 265   101    99     2    60     0     0     0
 1992 266   102   100     2    60     0     0     0
 1992 267   103   101     2    60     0     0     0
 1992 268   104   102     2    60     0     0     0
 1992 269   105   103     2    60     0     0     0
 1992 270   106   104     2    60     0     0     0
 1992 271   107   105     2    60     0     0     0
 1992 272   108   106     2    60     0     0     0
 1992 273   109   107     2    60     0     0     0
 1992 274   110   108     2    60     0     0     0
 1992 275   111   109     2    60     0     0     0
 1992 276   112   110     2    60     0     0     0
 1992 277   113   111     2    60     0     0     0
 1992 278   114   112     2    60     0     0     0
 1992 279   115   113     2    60     0     0     0
 1992 280   116   114     2    60     0     0     0
 1992 281   117   115     2    60     0     0     0
 1992 282   118   116     2    60     0     0     0
 1992 283   119   117     2    60     0     0     0
 1992 284   120   118     2    60     0     0     0
 1992 285   121   119     2    60     0     0     0
 1992 286   122   120     2    60     0     0     0
 1992 287   123   121     2    60     0     0     0
 1992 288   124   122     2    60     0     0     0
 1992 289   125   123     2    60     0     0     0
 1992 290   126   124     2    60     0     0     0
 1992 291   127   125     2    60     0     0     0
 1992 292   128   126     2    60     0     0     0
 1992 293   129   127     2    60     0     0     0
 1992 294   130   128     2    60     0     0     0
 1992 295   131   129     2    60     0     0     0
 1992 296   132   130     2    60     0     0     0
 1992 297   133   131     2    60     0     0     0
 1992 298   134   132     2    60     0     0     0
 1992 299   135   133     2    60     0     0     0
 1992 300   136   134     2    60     0     0     0
 1992 301   137   135     2    60     0     0     0
 1992 302   138   136     2    60     0     0     0
 1992 303   139   137     2    60     0     0     0
 1992 304   140   138     2    60     0     0     0
 1992 305   141   139     2    60     0     0     0

*DSSAT Cropping System Model Ver. 4.7.5.008 -release  JAN 15, 2021 21:49:57

*RUN   3        : ERiMA DCC1                MZCER047 ETMZpolo    1
 MODEL          : MZCER047 - Maize
 EXPERIMENT     : ETMZpolo SN MELKSSAL
 DATA PATH      : C:\Users\kpodo\Documents\GitHub\ET_DSS_hist_Eunjin\TEST\
 TREATMENT  1   : ERiMA DCC1                MZCER047
  

@YEAR DOY   DAS   DAP  NAPC  NICM  R#AC RESNC RESPC
 1993 165     1     0     0     0     0     0     0
 1993 166     2     0     1    30     0     0     0
 1993 167     3     1     1    30     0     0     0
 1993 168     4     2     1    30     0     0     0
 1993 169     5     3     1    30     0     0     0
 1993 170     6     4     1    30     0     0     0
 1993 171     7     5     1    30     0     0     0
 1993 172     8     6     1    30     0     0     0
 1993 173     9     7     1    30     0     0     0
 1993 174    10     8     1    30     0     0     0
 1993 175    11     9     1    30     0     0     0
 1993 176    12    10     1    30     0     0     0
 1993 177    13    11     1    30     0     0     0
 1993 178    14    12     1    30     0     0     0
 1993 179    15    13     1    30     0     0     0
 1993 180    16    14     1    30     0     0     0
 1993 181    17    15     1    30     0     0     0
 1993 182    18    16     1    30     0     0     0
 1993 183    19    17     1    30     0     0     0
 1993 184    20    18     1    30     0     0     0
 1993 185    21    19     1    30     0     0     0
 1993 186    22    20     1    30     0     0     0
 1993 187    23    21     1    30     0     0     0
 1993 188    24    22     1    30     0     0     0
 1993 189    25    23     1    30     0     0     0
 1993 190    26    24     1    30     0     0     0
 1993 191    27    25     1    30     0     0     0
 1993 192    28    26     1    30     0     0     0
 1993 193    29    27     1    30     0     0     0
 1993 194    30    28     1    30     0     0     0
 1993 195    31    29     1    30     0     0     0
 1993 196    32    30     1    30     0     0     0
 1993 197    33    31     1    30     0     0     0
 1993 198    34    32     1    30     0     0     0
 1993 199    35    33     1    30     0     0     0
 1993 200    36    34     1    30     0     0     0
 1993 201    37    35     1    30     0     0     0
 1993 202    38    36     1    30     0     0     0
 1993 203    39    37     1    30     0     0     0
 1993 204    40    38     1    30     0     0     0
 1993 205    41    39     1    30     0     0     0
 1993 206    42    40     1    30     0     0     0
 1993 207    43    41     1    30     0     0     0
 1993 208    44    42     1    30     0     0     0
 1993 209    45    43     1    30     0     0     0
 1993 210    46    44     1    30     0     0     0
 1993 211    47    45     2    60     0     0     0
 1993 212    48    46     2    60     0     0     0
 1993 213    49    47     2    60     0     0     0
 1993 214    50    48     2    60     0     0     0
 1993 215    51    49     2    60     0     0     0
 1993 216    52    50     2    60     0     0     0
 1993 217    53    51     2    60     0     0     0
 1993 218    54    52     2    60     0     0     0
 1993 219    55    53     2    60     0     0     0
 1993 220    56    54     2    60     0     0     0
 1993 221    57    55     2    60     0     0     0
 1993 222    58    56     2    60     0     0     0
 1993 223    59    57     2    60     0     0     0
 1993 224    60    58     2    60     0     0     0
 1993 225    61    59     2    60     0     0     0
 1993 226    62    60     2    60     0     0     0
 1993 227    63    61     2    60     0     0     0
 1993 228    64    62     2    60     0     0     0
 1993 229    65    63     2    60     0     0     0
 1993 230    66    64     2    60     0     0     0
 1993 231    67    65     2    60     0     0     0
 1993 232    68    66     2    60     0     0     0
 1993 233    69    67     2    60     0     0     0
 1993 234    70    68     2    60     0     0     0
 1993 235    71    69     2    60     0     0     0
 1993 236    72    70     2    60     0     0     0
 1993 237    73    71     2    60     0     0     0
 1993 238    74    72     2    60     0     0     0
 1993 239    75    73     2    60     0     0     0
 1993 240    76    74     2    60     0     0     0
 1993 241    77    75     2    60     0     0     0
 1993 242    78    76     2    60     0     0     0
 1993 243    79    77     2    60     0     0     0
 1993 244    80    78     2    60     0     0     0
 1993 245    81    79     2    60     0     0     0
 1993 246    82    80     2    60     0     0     0
 1993 247    83    81     2    60     0     0     0
 1993 248    84    82     2    60     0     0     0
 1993 249    85    83     2    60     0     0     0
 1993 250    86    84     2    60     0     0     0
 1993 251    87    85     2    60     0     0     0
 1993 252    88    86     2    60     0     0     0
 1993 253    89    87     2    60     0     0     0
 1993 254    90    88     2    60     0     0     0
 1993 255    91    89     2    60     0     0     0
 1993 256    92    90     2    60     0     0     0
 1993 257    93    91     2    60     0     0     0
 1993 258    94    92     2    60     0     0     0
 1993 259    95    93     2    60     0     0     0
 1993 260    96    94     2    60     0     0     0
 1993 261    97    95     2    60     0     0     0
 1993 262    98    96     2    60     0     0     0
 1993 263    99    97     2    60     0     0     0
 1993 264   100    98     2    60     0     0     0
 1993 265   101    99     2    60     0     0     0
 1993 266   102   100     2    60     0     0     0
 1993 267   103   101     2    60     0     0     0
 1993 268   104   102     2    60     0     0     0
 1993 269   105   103     2    60     0     0     0
 1993 270   106   104     2    60     0     0     0
 1993 271   107   105     2    60     0     0     0
 1993 272   108   106     2    60     0     0     0
 1993 273   109   107     2    60     0     0     0
 1993 274   110   108     2    60     0     0     0
 1993 275   111   109     2    60     0     0     0
 1993 276   112   110     2    60     0     0     0
 1993 277   113   111     2    60     0     0     0
 1993 278   114   112     2    60     0     0     0
 1993 279   115   113     2    60     0     0     0
 1993 280   116   114     2    60     0     0     0
 1993 281   117   115     2    60     0     0     0
 1993 282   118   116     2    60     0     0     0
 1993 283   119   117     2    60     0     0     0
 1993 284   120   118     2    60     0     0     0
 1993 285   121   119     2    60     0     0     0
 1993 286   122   120     2    60     0     0     0
 1993 287   123   121     2    60     0     0     0
 1993 288   124   122     2    60     0     0     0
 1993 289   125   123     2    60     0     0     0
 1993 290   126   124     2    60     0     0     0
 1993 291   127   125     2    60     0     0     0
 1993 292   128   126     2    60     0     0     0
 1993 293   129   127     2    60     0     0     0
 1993 294   130   128     2    60     0     0     0
 1993 295   131   129     2    60     0     0     0
 1993 296   132   130     2    60     0     0     0
 1993 297   133   131     2    60     0     0     0
 1993 298   134   132     2    60     0     0     0
 1993 299   135   133     2    60     0     0     0
 1993 300   136   134     2    60     0     0     0
 1993 301   137   135     2    60     0     0     0

*DSSAT Cropping System Model Ver. 4.7.5.008 -release  JAN 15, 2021 21:49:57

*RUN   4        : ERiMA DCC1                MZCER047 ETMZpolo    1
 MODEL          : MZCER047 - Maize
 EXPERIMENT     : ETMZpolo SN MELKSSAL
 DATA PATH      : C:\Users\kpodo\Documents\GitHub\ET_DSS_hist_Eunjin\TEST\
 TREATMENT  1   : ERiMA DCC1                MZCER047
  

@YEAR DOY   DAS   DAP  NAPC  NICM  R#AC RESNC RESPC
 1994 165     1     0     0     0     0     0     0
 1994 166     2     0     1    30     0     0     0
 1994 167     3     1     1    30     0     0     0
 1994 168     4     2     1    30     0     0     0
 1994 169     5     3     1    30     0     0     0
 1994 170     6     4     1    30     0     0     0
 1994 171     7     5     1    30     0     0     0
 1994 172     8     6     1    30     0     0     0
 1994 173     9     7     1    30     0     0     0
 1994 174    10     8     1    30     0     0     0
 1994 175    11     9     1    30     0     0     0
 1994 176    12    10     1    30     0     0     0
 1994 177    13    11     1    30     0     0     0
 1994 178    14    12     1    30     0     0     0
 1994 179    15    13     1    30     0     0     0
 1994 180    16    14     1    30     0     0     0
 1994 181    17    15     1    30     0     0     0
 1994 182    18    16     1    30     0     0     0
 1994 183    19    17     1    30     0     0     0
 1994 184    20    18     1    30     0     0     0
 1994 185    21    19     1    30     0     0     0
 1994 186    22    20     1    30     0     0     0
 1994 187    23    21     1    30     0     0     0
 1994 188    24    22     1    30     0     0     0
 1994 189    25    23     1    30     0     0     0
 1994 190    26    24     1    30     0     0     0
 1994 191    27    25     1    30     0     0     0
 1994 192    28    26     1    30     0     0     0
 1994 193    29    27     1    30     0     0     0
 1994 194    30    28     1    30     0     0     0
 1994 195    31    29     1    30     0     0     0
 1994 196    32    30     1    30     0     0     0
 1994 197    33    31     1    30     0     0     0
 1994 198    34    32     1    30     0     0     0
 1994 199    35    33     1    30     0     0     0
 1994 200    36    34     1    30     0     0     0
 1994 201    37    35     1    30     0     0     0
 1994 202    38    36     1    30     0     0     0
 1994 203    39    37     1    30     0     0     0
 1994 204    40    38     1    30     0     0     0
 1994 205    41    39     1    30     0     0     0
 1994 206    42    40     1    30     0     0     0
 1994 207    43    41     1    30     0     0     0
 1994 208    44    42     1    30     0     0     0
 1994 209    45    43     1    30     0     0     0
 1994 210    46    44     1    30     0     0     0
 1994 211    47    45     2    60     0     0     0
 1994 212    48    46     2    60     0     0     0
 1994 213    49    47     2    60     0     0     0
 1994 214    50    48     2    60     0     0     0
 1994 215    51    49     2    60     0     0     0
 1994 216    52    50     2    60     0     0     0
 1994 217    53    51     2    60     0     0     0
 1994 218    54    52     2    60     0     0     0
 1994 219    55    53     2    60     0     0     0
 1994 220    56    54     2    60     0     0     0
 1994 221    57    55     2    60     0     0     0
 1994 222    58    56     2    60     0     0     0
 1994 223    59    57     2    60     0     0     0
 1994 224    60    58     2    60     0     0     0
 1994 225    61    59     2    60     0     0     0
 1994 226    62    60     2    60     0     0     0
 1994 227    63    61     2    60     0     0     0
 1994 228    64    62     2    60     0     0     0
 1994 229    65    63     2    60     0     0     0
 1994 230    66    64     2    60     0     0     0
 1994 231    67    65     2    60     0     0     0
 1994 232    68    66     2    60     0     0     0
 1994 233    69    67     2    60     0     0     0
 1994 234    70    68     2    60     0     0     0
 1994 235    71    69     2    60     0     0     0
 1994 236    72    70     2    60     0     0     0
 1994 237    73    71     2    60     0     0     0
 1994 238    74    72     2    60     0     0     0
 1994 239    75    73     2    60     0     0     0
 1994 240    76    74     2    60     0     0     0
 1994 241    77    75     2    60     0     0     0
 1994 242    78    76     2    60     0     0     0
 1994 243    79    77     2    60     0     0     0
 1994 244    80    78     2    60     0     0     0
 1994 245    81    79     2    60     0     0     0
 1994 246    82    80     2    60     0     0     0
 1994 247    83    81     2    60     0     0     0
 1994 248    84    82     2    60     0     0     0
 1994 249    85    83     2    60     0     0     0
 1994 250    86    84     2    60     0     0     0
 1994 251    87    85     2    60     0     0     0
 1994 252    88    86     2    60     0     0     0
 1994 253    89    87     2    60     0     0     0
 1994 254    90    88     2    60     0     0     0
 1994 255    91    89     2    60     0     0     0
 1994 256    92    90     2    60     0     0     0
 1994 257    93    91     2    60     0     0     0
 1994 258    94    92     2    60     0     0     0
 1994 259    95    93     2    60     0     0     0
 1994 260    96    94     2    60     0     0     0
 1994 261    97    95     2    60     0     0     0
 1994 262    98    96     2    60     0     0     0
 1994 263    99    97     2    60     0     0     0
 1994 264   100    98     2    60     0     0     0
 1994 265   101    99     2    60     0     0     0
 1994 266   102   100     2    60     0     0     0
 1994 267   103   101     2    60     0     0     0
 1994 268   104   102     2    60     0     0     0
 1994 269   105   103     2    60     0     0     0
 1994 270   106   104     2    60     0     0     0
 1994 271   107   105     2    60     0     0     0
 1994 272   108   106     2    60     0     0     0
 1994 273   109   107     2    60     0     0     0
 1994 274   110   108     2    60     0     0     0
 1994 275   111   109     2    60     0     0     0
 1994 276   112   110     2    60     0     0     0
 1994 277   113   111     2    60     0     0     0
 1994 278   114   112     2    60     0     0     0
 1994 279   115   113     2    60     0     0     0
 1994 280   116   114     2    60     0     0     0
 1994 281   117   115     2    60     0     0     0
 1994 282   118   116     2    60     0     0     0
 1994 283   119   117     2    60     0     0     0
 1994 284   120   118     2    60     0     0     0
 1994 285   121   119     2    60     0     0     0
 1994 286   122   120     2    60     0     0     0
 1994 287   123   121     2    60     0     0     0
 1994 288   124   122     2    60     0     0     0
 1994 289   125   123     2    60     0     0     0
 1994 290   126   124     2    60     0     0     0
 1994 291   127   125     2    60     0     0     0
 1994 292   128   126     2    60     0     0     0
 1994 293   129   127     2    60     0     0     0
 1994 294   130   128     2    60     0     0     0
 1994 295   131   129     2    60     0     0     0
 1994 296   132   130     2    60     0     0     0
 1994 297   133   131     2    60     0     0     0
 1994 298   134   132     2    60     0     0     0
 1994 299   135   133     2    60     0     0     0

*DSSAT Cropping System Model Ver. 4.7.5.008 -release  JAN 15, 2021 21:49:57

*RUN   5        : ERiMA DCC1                MZCER047 ETMZpolo    1
 MODEL          : MZCER047 - Maize
 EXPERIMENT     : ETMZpolo SN MELKSSAL
 DATA PATH      : C:\Users\kpodo\Documents\GitHub\ET_DSS_hist_Eunjin\TEST\
 TREATMENT  1   : ERiMA DCC1                MZCER047
  

@YEAR DOY   DAS   DAP  NAPC  NICM  R#AC RESNC RESPC
 1995 165     1     0     0     0     0     0     0
 1995 166     2     0     1    30     0     0     0
 1995 167     3     1     1    30     0     0     0
 1995 168     4     2     1    30     0     0     0
 1995 169     5     3     1    30     0     0     0
 1995 170     6     4     1    30     0     0     0
 1995 171     7     5     1    30     0     0     0
 1995 172     8     6     1    30     0     0     0
 1995 173     9     7     1    30     0     0     0
 1995 174    10     8     1    30     0     0     0
 1995 175    11     9     1    30     0     0     0
 1995 176    12    10     1    30     0     0     0
 1995 177    13    11     1    30     0     0     0
 1995 178    14    12     1    30     0     0     0
 1995 179    15    13     1    30     0     0     0
 1995 180    16    14     1    30     0     0     0
 1995 181    17    15     1    30     0     0     0
 1995 182    18    16     1    30     0     0     0
 1995 183    19    17     1    30     0     0     0
 1995 184    20    18     1    30     0     0     0
 1995 185    21    19     1    30     0     0     0
 1995 186    22    20     1    30     0     0     0
 1995 187    23    21     1    30     0     0     0
 1995 188    24    22     1    30     0     0     0
 1995 189    25    23     1    30     0     0     0
 1995 190    26    24     1    30     0     0     0
 1995 191    27    25     1    30     0     0     0
 1995 192    28    26     1    30     0     0     0
 1995 193    29    27     1    30     0     0     0
 1995 194    30    28     1    30     0     0     0
 1995 195    31    29     1    30     0     0     0
 1995 196    32    30     1    30     0     0     0
 1995 197    33    31     1    30     0     0     0
 1995 198    34    32     1    30     0     0     0
 1995 199    35    33     1    30     0     0     0
 1995 200    36    34     1    30     0     0     0
 1995 201    37    35     1    30     0     0     0
 1995 202    38    36     1    30     0     0     0
 1995 203    39    37     1    30     0     0     0
 1995 204    40    38     1    30     0     0     0
 1995 205    41    39     1    30     0     0     0
 1995 206    42    40     1    30     0     0     0
 1995 207    43    41     1    30     0     0     0
 1995 208    44    42     1    30     0     0     0
 1995 209    45    43     1    30     0     0     0
 1995 210    46    44     1    30     0     0     0
 1995 211    47    45     2    60     0     0     0
 1995 212    48    46     2    60     0     0     0
 1995 213    49    47     2    60     0     0     0
 1995 214    50    48     2    60     0     0     0
 1995 215    51    49     2    60     0     0     0
 1995 216    52    50     2    60     0     0     0
 1995 217    53    51     2    60     0     0     0
 1995 218    54    52     2    60     0     0     0
 1995 219    55    53     2    60     0     0     0
 1995 220    56    54     2    60     0     0     0
 1995 221    57    55     2    60     0     0     0
 1995 222    58    56     2    60     0     0     0
 1995 223    59    57     2    60     0     0     0
 1995 224    60    58     2    60     0     0     0
 1995 225    61    59     2    60     0     0     0
 1995 226    62    60     2    60     0     0     0
 1995 227    63    61     2    60     0     0     0
 1995 228    64    62     2    60     0     0     0
 1995 229    65    63     2    60     0     0     0
 1995 230    66    64     2    60     0     0     0
 1995 231    67    65     2    60     0     0     0
 1995 232    68    66     2    60     0     0     0
 1995 233    69    67     2    60     0     0     0
 1995 234    70    68     2    60     0     0     0
 1995 235    71    69     2    60     0     0     0
 1995 236    72    70     2    60     0     0     0
 1995 237    73    71     2    60     0     0     0
 1995 238    74    72     2    60     0     0     0
 1995 239    75    73     2    60     0     0     0
 1995 240    76    74     2    60     0     0     0
 1995 241    77    75     2    60     0     0     0
 1995 242    78    76     2    60     0     0     0
 1995 243    79    77     2    60     0     0     0
 1995 244    80    78     2    60     0     0     0
 1995 245    81    79     2    60     0     0     0
 1995 246    82    80     2    60     0     0     0
 1995 247    83    81     2    60     0     0     0
 1995 248    84    82     2    60     0     0     0
 1995 249    85    83     2    60     0     0     0
 1995 250    86    84     2    60     0     0     0
 1995 251    87    85     2    60     0     0     0
 1995 252    88    86     2    60     0     0     0
 1995 253    89    87     2    60     0     0     0
 1995 254    90    88     2    60     0     0     0
 1995 255    91    89     2    60     0     0     0
 1995 256    92    90     2    60     0     0     0
 1995 257    93    91     2    60     0     0     0
 1995 258    94    92     2    60     0     0     0
 1995 259    95    93     2    60     0     0     0
 1995 260    96    94     2    60     0     0     0
 1995 261    97    95     2    60     0     0     0
 1995 262    98    96     2    60     0     0     0
 1995 263    99    97     2    60     0     0     0
 1995 264   100    98     2    60     0     0     0
 1995 265   101    99     2    60     0     0     0
 1995 266   102   100     2    60     0     0     0
 1995 267   103   101     2    60     0     0     0
 1995 268   104   102     2    60     0     0     0
 1995 269   105   103     2    60     0     0     0
 1995 270   106   104     2    60     0     0     0
 1995 271   107   105     2    60     0     0     0
 1995 272   108   106     2    60     0     0     0
 1995 273   109   107     2    60     0     0     0
 1995 274   110   108     2    60     0     0     0
 1995 275   111   109     2    60     0     0     0
 1995 276   112   110     2    60     0     0     0
 1995 277   113   111     2    60     0     0     0
 1995 278   114   112     2    60     0     0     0
 1995 279   115   113     2    60     0     0     0
 1995 280   116   114     2    60     0     0     0
 1995 281   117   115     2    60     0     0     0
 1995 282   118   116     2    60     0     0     0
 1995 283   119   117     2    60     0     0     0
 1995 284   120   118     2    60     0     0     0
 1995 285   121   119     2    60     0     0     0
 1995 286   122   120     2    60     0     0     0
 1995 287   123   121     2    60     0     0     0
 1995 288   124   122     2    60     0     0     0
 1995 289   125   123     2    60     0     0     0
 1995 290   126   124     2    60     0     0     0
 1995 291   127   125     2    60     0     0     0
 1995 292   128   126     2    60     0     0     0
 1995 293   129   127     2    60     0     0     0
 1995 294   130   128     2    60     0     0     0
 1995 295   131   129     2    60     0     0     0

*DSSAT Cropping System Model Ver. 4.7.5.008 -release  JAN 15, 2021 21:49:57

*RUN   6        : ERiMA DCC1                MZCER047 ETMZpolo    1
 MODEL          : MZCER047 - Maize
 EXPERIMENT     : ETMZpolo SN MELKSSAL
 DATA PATH      : C:\Users\kpodo\Documents\GitHub\ET_DSS_hist_Eunjin\TEST\
 TREATMENT  1   : ERiMA DCC1                MZCER047
  

@YEAR DOY   DAS   DAP  NAPC  NICM  R#AC RESNC RESPC
 1996 165     1     0     0     0     0     0     0
 1996 166     2     0     1    30     0     0     0
 1996 167     3     1     1    30     0     0     0
 1996 168     4     2     1    30     0     0     0
 1996 169     5     3     1    30     0     0     0
 1996 170     6     4     1    30     0     0     0
 1996 171     7     5     1    30     0     0     0
 1996 172     8     6     1    30     0     0     0
 1996 173     9     7     1    30     0     0     0
 1996 174    10     8     1    30     0     0     0
 1996 175    11     9     1    30     0     0     0
 1996 176    12    10     1    30     0     0     0
 1996 177    13    11     1    30     0     0     0
 1996 178    14    12     1    30     0     0     0
 1996 179    15    13     1    30     0     0     0
 1996 180    16    14     1    30     0     0     0
 1996 181    17    15     1    30     0     0     0
 1996 182    18    16     1    30     0     0     0
 1996 183    19    17     1    30     0     0     0
 1996 184    20    18     1    30     0     0     0
 1996 185    21    19     1    30     0     0     0
 1996 186    22    20     1    30     0     0     0
 1996 187    23    21     1    30     0     0     0
 1996 188    24    22     1    30     0     0     0
 1996 189    25    23     1    30     0     0     0
 1996 190    26    24     1    30     0     0     0
 1996 191    27    25     1    30     0     0     0
 1996 192    28    26     1    30     0     0     0
 1996 193    29    27     1    30     0     0     0
 1996 194    30    28     1    30     0     0     0
 1996 195    31    29     1    30     0     0     0
 1996 196    32    30     1    30     0     0     0
 1996 197    33    31     1    30     0     0     0
 1996 198    34    32     1    30     0     0     0
 1996 199    35    33     1    30     0     0     0
 1996 200    36    34     1    30     0     0     0
 1996 201    37    35     1    30     0     0     0
 1996 202    38    36     1    30     0     0     0
 1996 203    39    37     1    30     0     0     0
 1996 204    40    38     1    30     0     0     0
 1996 205    41    39     1    30     0     0     0
 1996 206    42    40     1    30     0     0     0
 1996 207    43    41     1    30     0     0     0
 1996 208    44    42     1    30     0     0     0
 1996 209    45    43     1    30     0     0     0
 1996 210    46    44     1    30     0     0     0
 1996 211    47    45     2    60     0     0     0
 1996 212    48    46     2    60     0     0     0
 1996 213    49    47     2    60     0     0     0
 1996 214    50    48     2    60     0     0     0
 1996 215    51    49     2    60     0     0     0
 1996 216    52    50     2    60     0     0     0
 1996 217    53    51     2    60     0     0     0
 1996 218    54    52     2    60     0     0     0
 1996 219    55    53     2    60     0     0     0
 1996 220    56    54     2    60     0     0     0
 1996 221    57    55     2    60     0     0     0
 1996 222    58    56     2    60     0     0     0
 1996 223    59    57     2    60     0     0     0
 1996 224    60    58     2    60     0     0     0
 1996 225    61    59     2    60     0     0     0
 1996 226    62    60     2    60     0     0     0
 1996 227    63    61     2    60     0     0     0
 1996 228    64    62     2    60     0     0     0
 1996 229    65    63     2    60     0     0     0
 1996 230    66    64     2    60     0     0     0
 1996 231    67    65     2    60     0     0     0
 1996 232    68    66     2    60     0     0     0
 1996 233    69    67     2    60     0     0     0
 1996 234    70    68     2    60     0     0     0
 1996 235    71    69     2    60     0     0     0
 1996 236    72    70     2    60     0     0     0
 1996 237    73    71     2    60     0     0     0
 1996 238    74    72     2    60     0     0     0
 1996 239    75    73     2    60     0     0     0
 1996 240    76    74     2    60     0     0     0
 1996 241    77    75     2    60     0     0     0
 1996 242    78    76     2    60     0     0     0
 1996 243    79    77     2    60     0     0     0
 1996 244    80    78     2    60     0     0     0
 1996 245    81    79     2    60     0     0     0
 1996 246    82    80     2    60     0     0     0
 1996 247    83    81     2    60     0     0     0
 1996 248    84    82     2    60     0     0     0
 1996 249    85    83     2    60     0     0     0
 1996 250    86    84     2    60     0     0     0
 1996 251    87    85     2    60     0     0     0
 1996 252    88    86     2    60     0     0     0
 1996 253    89    87     2    60     0     0     0
 1996 254    90    88     2    60     0     0     0
 1996 255    91    89     2    60     0     0     0
 1996 256    92    90     2    60     0     0     0
 1996 257    93    91     2    60     0     0     0
 1996 258    94    92     2    60     0     0     0
 1996 259    95    93     2    60     0     0     0
 1996 260    96    94     2    60     0     0     0
 1996 261    97    95     2    60     0     0     0
 1996 262    98    96     2    60     0     0     0
 1996 263    99    97     2    60     0     0     0
 1996 264   100    98     2    60     0     0     0
 1996 265   101    99     2    60     0     0     0
 1996 266   102   100     2    60     0     0     0
 1996 267   103   101     2    60     0     0     0
 1996 268   104   102     2    60     0     0     0
 1996 269   105   103     2    60     0     0     0
 1996 270   106   104     2    60     0     0     0
 1996 271   107   105     2    60     0     0     0
 1996 272   108   106     2    60     0     0     0
 1996 273   109   107     2    60     0     0     0
 1996 274   110   108     2    60     0     0     0
 1996 275   111   109     2    60     0     0     0
 1996 276   112   110     2    60     0     0     0
 1996 277   113   111     2    60     0     0     0
 1996 278   114   112     2    60     0     0     0
 1996 279   115   113     2    60     0     0     0
 1996 280   116   114     2    60     0     0     0
 1996 281   117   115     2    60     0     0     0
 1996 282   118   116     2    60     0     0     0
 1996 283   119   117     2    60     0     0     0
 1996 284   120   118     2    60     0     0     0
 1996 285   121   119     2    60     0     0     0
 1996 286   122   120     2    60     0     0     0
 1996 287   123   121     2    60     0     0     0
 1996 288   124   122     2    60     0     0     0
 1996 289   125   123     2    60     0     0     0
 1996 290   126   124     2    60     0     0     0
 1996 291   127   125     2    60     0     0     0
 1996 292   128   126     2    60     0     0     0
 1996 293   129   127     2    60     0     0     0
 1996 294   130   128     2    60     0     0     0
 1996 295   131   129     2    60     0     0     0
 1996 296   132   130     2    60     0     0     0
 1996 297   133   131     2    60     0     0     0
 1996 298   134   132     2    60     0     0     0
 1996 299   135   133     2    60     0     0     0
 1996 300   136   134     2    60     0     0     0
 1996 301   137   135     2    60     0     0     0
 1996 302   138   136     2    60     0     0     0

*DSSAT Cropping System Model Ver. 4.7.5.008 -release  JAN 15, 2021 21:49:57

*RUN   7        : ERiMA DCC1                MZCER047 ETMZpolo    1
 MODEL          : MZCER047 - Maize
 EXPERIMENT     : ETMZpolo SN MELKSSAL
 DATA PATH      : C:\Users\kpodo\Documents\GitHub\ET_DSS_hist_Eunjin\TEST\
 TREATMENT  1   : ERiMA DCC1                MZCER047
  

@YEAR DOY   DAS   DAP  NAPC  NICM  R#AC RESNC RESPC
 1997 165     1     0     0     0     0     0     0
 1997 166     2     0     1    30     0     0     0
 1997 167     3     1     1    30     0     0     0
 1997 168     4     2     1    30     0     0     0
 1997 169     5     3     1    30     0     0     0
 1997 170     6     4     1    30     0     0     0
 1997 171     7     5     1    30     0     0     0
 1997 172     8     6     1    30     0     0     0
 1997 173     9     7     1    30     0     0     0
 1997 174    10     8     1    30     0     0     0
 1997 175    11     9     1    30     0     0     0
 1997 176    12    10     1    30     0     0     0
 1997 177    13    11     1    30     0     0     0
 1997 178    14    12     1    30     0     0     0
 1997 179    15    13     1    30     0     0     0
 1997 180    16    14     1    30     0     0     0
 1997 181    17    15     1    30     0     0     0
 1997 182    18    16     1    30     0     0     0
 1997 183    19    17     1    30     0     0     0
 1997 184    20    18     1    30     0     0     0
 1997 185    21    19     1    30     0     0     0
 1997 186    22    20     1    30     0     0     0
 1997 187    23    21     1    30     0     0     0
 1997 188    24    22     1    30     0     0     0
 1997 189    25    23     1    30     0     0     0
 1997 190    26    24     1    30     0     0     0
 1997 191    27    25     1    30     0     0     0
 1997 192    28    26     1    30     0     0     0
 1997 193    29    27     1    30     0     0     0
 1997 194    30    28     1    30     0     0     0
 1997 195    31    29     1    30     0     0     0
 1997 196    32    30     1    30     0     0     0
 1997 197    33    31     1    30     0     0     0
 1997 198    34    32     1    30     0     0     0
 1997 199    35    33     1    30     0     0     0
 1997 200    36    34     1    30     0     0     0
 1997 201    37    35     1    30     0     0     0
 1997 202    38    36     1    30     0     0     0
 1997 203    39    37     1    30     0     0     0
 1997 204    40    38     1    30     0     0     0
 1997 205    41    39     1    30     0     0     0
 1997 206    42    40     1    30     0     0     0
 1997 207    43    41     1    30     0     0     0
 1997 208    44    42     1    30     0     0     0
 1997 209    45    43     1    30     0     0     0
 1997 210    46    44     1    30     0     0     0
 1997 211    47    45     2    60     0     0     0
 1997 212    48    46     2    60     0     0     0
 1997 213    49    47     2    60     0     0     0
 1997 214    50    48     2    60     0     0     0
 1997 215    51    49     2    60     0     0     0
 1997 216    52    50     2    60     0     0     0
 1997 217    53    51     2    60     0     0     0
 1997 218    54    52     2    60     0     0     0
 1997 219    55    53     2    60     0     0     0
 1997 220    56    54     2    60     0     0     0
 1997 221    57    55     2    60     0     0     0
 1997 222    58    56     2    60     0     0     0
 1997 223    59    57     2    60     0     0     0
 1997 224    60    58     2    60     0     0     0
 1997 225    61    59     2    60     0     0     0
 1997 226    62    60     2    60     0     0     0
 1997 227    63    61     2    60     0     0     0
 1997 228    64    62     2    60     0     0     0
 1997 229    65    63     2    60     0     0     0
 1997 230    66    64     2    60     0     0     0
 1997 231    67    65     2    60     0     0     0
 1997 232    68    66     2    60     0     0     0
 1997 233    69    67     2    60     0     0     0
 1997 234    70    68     2    60     0     0     0
 1997 235    71    69     2    60     0     0     0
 1997 236    72    70     2    60     0     0     0
 1997 237    73    71     2    60     0     0     0
 1997 238    74    72     2    60     0     0     0
 1997 239    75    73     2    60     0     0     0
 1997 240    76    74     2    60     0     0     0
 1997 241    77    75     2    60     0     0     0
 1997 242    78    76     2    60     0     0     0
 1997 243    79    77     2    60     0     0     0
 1997 244    80    78     2    60     0     0     0
 1997 245    81    79     2    60     0     0     0
 1997 246    82    80     2    60     0     0     0
 1997 247    83    81     2    60     0     0     0
 1997 248    84    82     2    60     0     0     0
 1997 249    85    83     2    60     0     0     0
 1997 250    86    84     2    60     0     0     0
 1997 251    87    85     2    60     0     0     0
 1997 252    88    86     2    60     0     0     0
 1997 253    89    87     2    60     0     0     0
 1997 254    90    88     2    60     0     0     0
 1997 255    91    89     2    60     0     0     0
 1997 256    92    90     2    60     0     0     0
 1997 257    93    91     2    60     0     0     0
 1997 258    94    92     2    60     0     0     0
 1997 259    95    93     2    60     0     0     0
 1997 260    96    94     2    60     0     0     0
 1997 261    97    95     2    60     0     0     0
 1997 262    98    96     2    60     0     0     0
 1997 263    99    97     2    60     0     0     0
 1997 264   100    98     2    60     0     0     0
 1997 265   101    99     2    60     0     0     0
 1997 266   102   100     2    60     0     0     0
 1997 267   103   101     2    60     0     0     0
 1997 268   104   102     2    60     0     0     0
 1997 269   105   103     2    60     0     0     0
 1997 270   106   104     2    60     0     0     0
 1997 271   107   105     2    60     0     0     0
 1997 272   108   106     2    60     0     0     0
 1997 273   109   107     2    60     0     0     0
 1997 274   110   108     2    60     0     0     0
 1997 275   111   109     2    60     0     0     0
 1997 276   112   110     2    60     0     0     0
 1997 277   113   111     2    60     0     0     0
 1997 278   114   112     2    60     0     0     0
 1997 279   115   113     2    60     0     0     0
 1997 280   116   114     2    60     0     0     0
 1997 281   117   115     2    60     0     0     0
 1997 282   118   116     2    60     0     0     0
 1997 283   119   117     2    60     0     0     0
 1997 284   120   118     2    60     0     0     0
 1997 285   121   119     2    60     0     0     0
 1997 286   122   120     2    60     0     0     0
 1997 287   123   121     2    60     0     0     0
 1997 288   124   122     2    60     0     0     0
 1997 289   125   123     2    60     0     0     0
 1997 290   126   124     2    60     0     0     0

*DSSAT Cropping System Model Ver. 4.7.5.008 -release  JAN 15, 2021 21:49:57

*RUN   8        : ERiMA DCC1                MZCER047 ETMZpolo    1
 MODEL          : MZCER047 - Maize
 EXPERIMENT     : ETMZpolo SN MELKSSAL
 DATA PATH      : C:\Users\kpodo\Documents\GitHub\ET_DSS_hist_Eunjin\TEST\
 TREATMENT  1   : ERiMA DCC1                MZCER047
  

@YEAR DOY   DAS   DAP  NAPC  NICM  R#AC RESNC RESPC
 1998 165     1     0     0     0     0     0     0
 1998 166     2     0     1    30     0     0     0
 1998 167     3     1     1    30     0     0     0
 1998 168     4     2     1    30     0     0     0
 1998 169     5     3     1    30     0     0     0
 1998 170     6     4     1    30     0     0     0
 1998 171     7     5     1    30     0     0     0
 1998 172     8     6     1    30     0     0     0
 1998 173     9     7     1    30     0     0     0
 1998 174    10     8     1    30     0     0     0
 1998 175    11     9     1    30     0     0     0
 1998 176    12    10     1    30     0     0     0
 1998 177    13    11     1    30     0     0     0
 1998 178    14    12     1    30     0     0     0
 1998 179    15    13     1    30     0     0     0
 1998 180    16    14     1    30     0     0     0
 1998 181    17    15     1    30     0     0     0
 1998 182    18    16     1    30     0     0     0
 1998 183    19    17     1    30     0     0     0
 1998 184    20    18     1    30     0     0     0
 1998 185    21    19     1    30     0     0     0
 1998 186    22    20     1    30     0     0     0
 1998 187    23    21     1    30     0     0     0
 1998 188    24    22     1    30     0     0     0
 1998 189    25    23     1    30     0     0     0
 1998 190    26    24     1    30     0     0     0
 1998 191    27    25     1    30     0     0     0
 1998 192    28    26     1    30     0     0     0
 1998 193    29    27     1    30     0     0     0
 1998 194    30    28     1    30     0     0     0
 1998 195    31    29     1    30     0     0     0
 1998 196    32    30     1    30     0     0     0
 1998 197    33    31     1    30     0     0     0
 1998 198    34    32     1    30     0     0     0
 1998 199    35    33     1    30     0     0     0
 1998 200    36    34     1    30     0     0     0
 1998 201    37    35     1    30     0     0     0
 1998 202    38    36     1    30     0     0     0
 1998 203    39    37     1    30     0     0     0
 1998 204    40    38     1    30     0     0     0
 1998 205    41    39     1    30     0     0     0
 1998 206    42    40     1    30     0     0     0
 1998 207    43    41     1    30     0     0     0
 1998 208    44    42     1    30     0     0     0
 1998 209    45    43     1    30     0     0     0
 1998 210    46    44     1    30     0     0     0
 1998 211    47    45     2    60     0     0     0
 1998 212    48    46     2    60     0     0     0
 1998 213    49    47     2    60     0     0     0
 1998 214    50    48     2    60     0     0     0
 1998 215    51    49     2    60     0     0     0
 1998 216    52    50     2    60     0     0     0
 1998 217    53    51     2    60     0     0     0
 1998 218    54    52     2    60     0     0     0
 1998 219    55    53     2    60     0     0     0
 1998 220    56    54     2    60     0     0     0
 1998 221    57    55     2    60     0     0     0
 1998 222    58    56     2    60     0     0     0
 1998 223    59    57     2    60     0     0     0
 1998 224    60    58     2    60     0     0     0
 1998 225    61    59     2    60     0     0     0
 1998 226    62    60     2    60     0     0     0
 1998 227    63    61     2    60     0     0     0
 1998 228    64    62     2    60     0     0     0
 1998 229    65    63     2    60     0     0     0
 1998 230    66    64     2    60     0     0     0
 1998 231    67    65     2    60     0     0     0
 1998 232    68    66     2    60     0     0     0
 1998 233    69    67     2    60     0     0     0
 1998 234    70    68     2    60     0     0     0
 1998 235    71    69     2    60     0     0     0
 1998 236    72    70     2    60     0     0     0
 1998 237    73    71     2    60     0     0     0
 1998 238    74    72     2    60     0     0     0
 1998 239    75    73     2    60     0     0     0
 1998 240    76    74     2    60     0     0     0
 1998 241    77    75     2    60     0     0     0
 1998 242    78    76     2    60     0     0     0
 1998 243    79    77     2    60     0     0     0
 1998 244    80    78     2    60     0     0     0
 1998 245    81    79     2    60     0     0     0
 1998 246    82    80     2    60     0     0     0
 1998 247    83    81     2    60     0     0     0
 1998 248    84    82     2    60     0     0     0
 1998 249    85    83     2    60     0     0     0
 1998 250    86    84     2    60     0     0     0
 1998 251    87    85     2    60     0     0     0
 1998 252    88    86     2    60     0     0     0
 1998 253    89    87     2    60     0     0     0
 1998 254    90    88     2    60     0     0     0
 1998 255    91    89     2    60     0     0     0
 1998 256    92    90     2    60     0     0     0
 1998 257    93    91     2    60     0     0     0
 1998 258    94    92     2    60     0     0     0
 1998 259    95    93     2    60     0     0     0
 1998 260    96    94     2    60     0     0     0
 1998 261    97    95     2    60     0     0     0
 1998 262    98    96     2    60     0     0     0
 1998 263    99    97     2    60     0     0     0
 1998 264   100    98     2    60     0     0     0
 1998 265   101    99     2    60     0     0     0
 1998 266   102   100     2    60     0     0     0
 1998 267   103   101     2    60     0     0     0
 1998 268   104   102     2    60     0     0     0
 1998 269   105   103     2    60     0     0     0
 1998 270   106   104     2    60     0     0     0
 1998 271   107   105     2    60     0     0     0
 1998 272   108   106     2    60     0     0     0
 1998 273   109   107     2    60     0     0     0
 1998 274   110   108     2    60     0     0     0
 1998 275   111   109     2    60     0     0     0
 1998 276   112   110     2    60     0     0     0
 1998 277   113   111     2    60     0     0     0
 1998 278   114   112     2    60     0     0     0
 1998 279   115   113     2    60     0     0     0
 1998 280   116   114     2    60     0     0     0
 1998 281   117   115     2    60     0     0     0
 1998 282   118   116     2    60     0     0     0
 1998 283   119   117     2    60     0     0     0
 1998 284   120   118     2    60     0     0     0
 1998 285   121   119     2    60     0     0     0
 1998 286   122   120     2    60     0     0     0
 1998 287   123   121     2    60     0     0     0
 1998 288   124   122     2    60     0     0     0
 1998 289   125   123     2    60     0     0     0
 1998 290   126   124     2    60     0     0     0
 1998 291   127   125     2    60     0     0     0
 1998 292   128   126     2    60     0     0     0
 1998 293   129   127     2    60     0     0     0
 1998 294   130   128     2    60     0     0     0
 1998 295   131   129     2    60     0     0     0
 1998 296   132   130     2    60     0     0     0
 1998 297   133   131     2    60     0     0     0
 1998 298   134   132     2    60     0     0     0
 1998 299   135   133     2    60     0     0     0
 1998 300   136   134     2    60     0     0     0

*DSSAT Cropping System Model Ver. 4.7.5.008 -release  JAN 15, 2021 21:49:57

*RUN   9        : ERiMA DCC1                MZCER047 ETMZpolo    1
 MODEL          : MZCER047 - Maize
 EXPERIMENT     : ETMZpolo SN MELKSSAL
 DATA PATH      : C:\Users\kpodo\Documents\GitHub\ET_DSS_hist_Eunjin\TEST\
 TREATMENT  1   : ERiMA DCC1                MZCER047
  

@YEAR DOY   DAS   DAP  NAPC  NICM  R#AC RESNC RESPC
 1999 165     1     0     0     0     0     0     0
 1999 166     2     0     1    30     0     0     0
 1999 167     3     1     1    30     0     0     0
 1999 168     4     2     1    30     0     0     0
 1999 169     5     3     1    30     0     0     0
 1999 170     6     4     1    30     0     0     0
 1999 171     7     5     1    30     0     0     0
 1999 172     8     6     1    30     0     0     0
 1999 173     9     7     1    30     0     0     0
 1999 174    10     8     1    30     0     0     0
 1999 175    11     9     1    30     0     0     0
 1999 176    12    10     1    30     0     0     0
 1999 177    13    11     1    30     0     0     0
 1999 178    14    12     1    30     0     0     0
 1999 179    15    13     1    30     0     0     0
 1999 180    16    14     1    30     0     0     0
 1999 181    17    15     1    30     0     0     0
 1999 182    18    16     1    30     0     0     0
 1999 183    19    17     1    30     0     0     0
 1999 184    20    18     1    30     0     0     0
 1999 185    21    19     1    30     0     0     0
 1999 186    22    20     1    30     0     0     0
 1999 187    23    21     1    30     0     0     0
 1999 188    24    22     1    30     0     0     0
 1999 189    25    23     1    30     0     0     0
 1999 190    26    24     1    30     0     0     0
 1999 191    27    25     1    30     0     0     0
 1999 192    28    26     1    30     0     0     0
 1999 193    29    27     1    30     0     0     0
 1999 194    30    28     1    30     0     0     0
 1999 195    31    29     1    30     0     0     0
 1999 196    32    30     1    30     0     0     0
 1999 197    33    31     1    30     0     0     0
 1999 198    34    32     1    30     0     0     0
 1999 199    35    33     1    30     0     0     0
 1999 200    36    34     1    30     0     0     0
 1999 201    37    35     1    30     0     0     0
 1999 202    38    36     1    30     0     0     0
 1999 203    39    37     1    30     0     0     0
 1999 204    40    38     1    30     0     0     0
 1999 205    41    39     1    30     0     0     0
 1999 206    42    40     1    30     0     0     0
 1999 207    43    41     1    30     0     0     0
 1999 208    44    42     1    30     0     0     0
 1999 209    45    43     1    30     0     0     0
 1999 210    46    44     1    30     0     0     0
 1999 211    47    45     2    60     0     0     0
 1999 212    48    46     2    60     0     0     0
 1999 213    49    47     2    60     0     0     0
 1999 214    50    48     2    60     0     0     0
 1999 215    51    49     2    60     0     0     0
 1999 216    52    50     2    60     0     0     0
 1999 217    53    51     2    60     0     0     0
 1999 218    54    52     2    60     0     0     0
 1999 219    55    53     2    60     0     0     0
 1999 220    56    54     2    60     0     0     0
 1999 221    57    55     2    60     0     0     0
 1999 222    58    56     2    60     0     0     0
 1999 223    59    57     2    60     0     0     0
 1999 224    60    58     2    60     0     0     0
 1999 225    61    59     2    60     0     0     0
 1999 226    62    60     2    60     0     0     0
 1999 227    63    61     2    60     0     0     0
 1999 228    64    62     2    60     0     0     0
 1999 229    65    63     2    60     0     0     0
 1999 230    66    64     2    60     0     0     0
 1999 231    67    65     2    60     0     0     0
 1999 232    68    66     2    60     0     0     0
 1999 233    69    67     2    60     0     0     0
 1999 234    70    68     2    60     0     0     0
 1999 235    71    69     2    60     0     0     0
 1999 236    72    70     2    60     0     0     0
 1999 237    73    71     2    60     0     0     0
 1999 238    74    72     2    60     0     0     0
 1999 239    75    73     2    60     0     0     0
 1999 240    76    74     2    60     0     0     0
 1999 241    77    75     2    60     0     0     0
 1999 242    78    76     2    60     0     0     0
 1999 243    79    77     2    60     0     0     0
 1999 244    80    78     2    60     0     0     0
 1999 245    81    79     2    60     0     0     0
 1999 246    82    80     2    60     0     0     0
 1999 247    83    81     2    60     0     0     0
 1999 248    84    82     2    60     0     0     0
 1999 249    85    83     2    60     0     0     0
 1999 250    86    84     2    60     0     0     0
 1999 251    87    85     2    60     0     0     0
 1999 252    88    86     2    60     0     0     0
 1999 253    89    87     2    60     0     0     0
 1999 254    90    88     2    60     0     0     0
 1999 255    91    89     2    60     0     0     0
 1999 256    92    90     2    60     0     0     0
 1999 257    93    91     2    60     0     0     0
 1999 258    94    92     2    60     0     0     0
 1999 259    95    93     2    60     0     0     0
 1999 260    96    94     2    60     0     0     0
 1999 261    97    95     2    60     0     0     0
 1999 262    98    96     2    60     0     0     0
 1999 263    99    97     2    60     0     0     0
 1999 264   100    98     2    60     0     0     0
 1999 265   101    99     2    60     0     0     0
 1999 266   102   100     2    60     0     0     0
 1999 267   103   101     2    60     0     0     0
 1999 268   104   102     2    60     0     0     0
 1999 269   105   103     2    60     0     0     0
 1999 270   106   104     2    60     0     0     0
 1999 271   107   105     2    60     0     0     0
 1999 272   108   106     2    60     0     0     0
 1999 273   109   107     2    60     0     0     0
 1999 274   110   108     2    60     0     0     0
 1999 275   111   109     2    60     0     0     0
 1999 276   112   110     2    60     0     0     0
 1999 277   113   111     2    60     0     0     0
 1999 278   114   112     2    60     0     0     0
 1999 279   115   113     2    60     0     0     0
 1999 280   116   114     2    60     0     0     0
 1999 281   117   115     2    60     0     0     0
 1999 282   118   116     2    60     0     0     0
 1999 283   119   117     2    60     0     0     0
 1999 284   120   118     2    60     0     0     0
 1999 285   121   119     2    60     0     0     0
 1999 286   122   120     2    60     0     0     0
 1999 287   123   121     2    60     0     0     0
 1999 288   124   122     2    60     0     0     0
 1999 289   125   123     2    60     0     0     0
 1999 290   126   124     2    60     0     0     0
 1999 291   127   125     2    60     0     0     0
 1999 292   128   126     2    60     0     0     0
 1999 293   129   127     2    60     0     0     0
 1999 294   130   128     2    60     0     0     0
 1999 295   131   129     2    60     0     0     0
 1999 296   132   130     2    60     0     0     0
 1999 297   133   131     2    60     0     0     0
 1999 298   134   132     2    60     0     0     0
 1999 299   135   133     2    60     0     0     0
 1999 300   136   134     2    60     0     0     0
 1999 301   137   135     2    60     0     0     0
 1999 302   138   136     2    60     0     0     0
 1999 303   139   137     2    60     0     0     0
 1999 304   140   138     2    60     0     0     0
 1999 305   141   139     2    60     0     0     0
 1999 306   142   140     2    60     0     0     0
 1999 307   143   141     2    60     0     0     0
 1999 308   144   142     2    60     0     0     0

*DSSAT Cropping System Model Ver. 4.7.5.008 -release  JAN 15, 2021 21:49:57

*RUN  10        : ERiMA DCC1                MZCER047 ETMZpolo    1
 MODEL          : MZCER047 - Maize
 EXPERIMENT     : ETMZpolo SN MELKSSAL
 DATA PATH      : C:\Users\kpodo\Documents\GitHub\ET_DSS_hist_Eunjin\TEST\
 TREATMENT  1   : ERiMA DCC1                MZCER047
  

@YEAR DOY   DAS   DAP  NAPC  NICM  R#AC RESNC RESPC
 2000 165     1     0     0     0     0     0     0
 2000 166     2     0     1    30     0     0     0
 2000 167     3     1     1    30     0     0     0
 2000 168     4     2     1    30     0     0     0
 2000 169     5     3     1    30     0     0     0
 2000 170     6     4     1    30     0     0     0
 2000 171     7     5     1    30     0     0     0
 2000 172     8     6     1    30     0     0     0
 2000 173     9     7     1    30     0     0     0
 2000 174    10     8     1    30     0     0     0
 2000 175    11     9     1    30     0     0     0
 2000 176    12    10     1    30     0     0     0
 2000 177    13    11     1    30     0     0     0
 2000 178    14    12     1    30     0     0     0
 2000 179    15    13     1    30     0     0     0
 2000 180    16    14     1    30     0     0     0
 2000 181    17    15     1    30     0     0     0
 2000 182    18    16     1    30     0     0     0
 2000 183    19    17     1    30     0     0     0
 2000 184    20    18     1    30     0     0     0
 2000 185    21    19     1    30     0     0     0
 2000 186    22    20     1    30     0     0     0
 2000 187    23    21     1    30     0     0     0
 2000 188    24    22     1    30     0     0     0
 2000 189    25    23     1    30     0     0     0
 2000 190    26    24     1    30     0     0     0
 2000 191    27    25     1    30     0     0     0
 2000 192    28    26     1    30     0     0     0
 2000 193    29    27     1    30     0     0     0
 2000 194    30    28     1    30     0     0     0
 2000 195    31    29     1    30     0     0     0
 2000 196    32    30     1    30     0     0     0
 2000 197    33    31     1    30     0     0     0
 2000 198    34    32     1    30     0     0     0
 2000 199    35    33     1    30     0     0     0
 2000 200    36    34     1    30     0     0     0
 2000 201    37    35     1    30     0     0     0
 2000 202    38    36     1    30     0     0     0
 2000 203    39    37     1    30     0     0     0
 2000 204    40    38     1    30     0     0     0
 2000 205    41    39     1    30     0     0     0
 2000 206    42    40     1    30     0     0     0
 2000 207    43    41     1    30     0     0     0
 2000 208    44    42     1    30     0     0     0
 2000 209    45    43     1    30     0     0     0
 2000 210    46    44     1    30     0     0     0
 2000 211    47    45     2    60     0     0     0
 2000 212    48    46     2    60     0     0     0
 2000 213    49    47     2    60     0     0     0
 2000 214    50    48     2    60     0     0     0
 2000 215    51    49     2    60     0     0     0
 2000 216    52    50     2    60     0     0     0
 2000 217    53    51     2    60     0     0     0
 2000 218    54    52     2    60     0     0     0
 2000 219    55    53     2    60     0     0     0
 2000 220    56    54     2    60     0     0     0
 2000 221    57    55     2    60     0     0     0
 2000 222    58    56     2    60     0     0     0
 2000 223    59    57     2    60     0     0     0
 2000 224    60    58     2    60     0     0     0
 2000 225    61    59     2    60     0     0     0
 2000 226    62    60     2    60     0     0     0
 2000 227    63    61     2    60     0     0     0
 2000 228    64    62     2    60     0     0     0
 2000 229    65    63     2    60     0     0     0
 2000 230    66    64     2    60     0     0     0
 2000 231    67    65     2    60     0     0     0
 2000 232    68    66     2    60     0     0     0
 2000 233    69    67     2    60     0     0     0
 2000 234    70    68     2    60     0     0     0
 2000 235    71    69     2    60     0     0     0
 2000 236    72    70     2    60     0     0     0
 2000 237    73    71     2    60     0     0     0
 2000 238    74    72     2    60     0     0     0
 2000 239    75    73     2    60     0     0     0
 2000 240    76    74     2    60     0     0     0
 2000 241    77    75     2    60     0     0     0
 2000 242    78    76     2    60     0     0     0
 2000 243    79    77     2    60     0     0     0
 2000 244    80    78     2    60     0     0     0
 2000 245    81    79     2    60     0     0     0
 2000 246    82    80     2    60     0     0     0
 2000 247    83    81     2    60     0     0     0
 2000 248    84    82     2    60     0     0     0
 2000 249    85    83     2    60     0     0     0
 2000 250    86    84     2    60     0     0     0
 2000 251    87    85     2    60     0     0     0
 2000 252    88    86     2    60     0     0     0
 2000 253    89    87     2    60     0     0     0
 2000 254    90    88     2    60     0     0     0
 2000 255    91    89     2    60     0     0     0
 2000 256    92    90     2    60     0     0     0
 2000 257    93    91     2    60     0     0     0
 2000 258    94    92     2    60     0     0     0
 2000 259    95    93     2    60     0     0     0
 2000 260    96    94     2    60     0     0     0
 2000 261    97    95     2    60     0     0     0
 2000 262    98    96     2    60     0     0     0
 2000 263    99    97     2    60     0     0     0
 2000 264   100    98     2    60     0     0     0
 2000 265   101    99     2    60     0     0     0
 2000 266   102   100     2    60     0     0     0
 2000 267   103   101     2    60     0     0     0
 2000 268   104   102     2    60     0     0     0
 2000 269   105   103     2    60     0     0     0
 2000 270   106   104     2    60     0     0     0
 2000 271   107   105     2    60     0     0     0
 2000 272   108   106     2    60     0     0     0
 2000 273   109   107     2    60     0     0     0
 2000 274   110   108     2    60     0     0     0
 2000 275   111   109     2    60     0     0     0
 2000 276   112   110     2    60     0     0     0
 2000 277   113   111     2    60     0     0     0
 2000 278   114   112     2    60     0     0     0
 2000 279   115   113     2    60     0     0     0
 2000 280   116   114     2    60     0     0     0
 2000 281   117   115     2    60     0     0     0
 2000 282   118   116     2    60     0     0     0
 2000 283   119   117     2    60     0     0     0
 2000 284   120   118     2    60     0     0     0
 2000 285   121   119     2    60     0     0     0
 2000 286   122   120     2    60     0     0     0
 2000 287   123   121     2    60     0     0     0
 2000 288   124   122     2    60     0     0     0
 2000 289   125   123     2    60     0     0     0
 2000 290   126   124     2    60     0     0     0
 2000 291   127   125     2    60     0     0     0
 2000 292   128   126     2    60     0     0     0
 2000 293   129   127     2    60     0     0     0
 2000 294   130   128     2    60     0     0     0
 2000 295   131   129     2    60     0     0     0
 2000 296   132   130     2    60     0     0     0
 2000 297   133   131     2    60     0     0     0
 2000 298   134   132     2    60     0     0     0
 2000 299   135   133     2    60     0     0     0
 2000 300   136   134     2    60     0     0     0
 2000 301   137   135     2    60     0     0     0
 2000 302   138   136     2    60     0     0     0
 2000 303   139   137     2    60     0     0     0
 2000 304   140   138     2    60     0     0     0
 2000 305   141   139     2    60     0     0     0
 2000 306   142   140     2    60     0     0     0

*DSSAT Cropping System Model Ver. 4.7.5.008 -release  JAN 15, 2021 21:49:57

*RUN  11        : ERiMA DCC1                MZCER047 ETMZpolo    1
 MODEL          : MZCER047 - Maize
 EXPERIMENT     : ETMZpolo SN MELKSSAL
 DATA PATH      : C:\Users\kpodo\Documents\GitHub\ET_DSS_hist_Eunjin\TEST\
 TREATMENT  1   : ERiMA DCC1                MZCER047
  

@YEAR DOY   DAS   DAP  NAPC  NICM  R#AC RESNC RESPC
 2001 165     1     0     0     0     0     0     0
 2001 166     2     0     1    30     0     0     0
 2001 167     3     1     1    30     0     0     0
 2001 168     4     2     1    30     0     0     0
 2001 169     5     3     1    30     0     0     0
 2001 170     6     4     1    30     0     0     0
 2001 171     7     5     1    30     0     0     0
 2001 172     8     6     1    30     0     0     0
 2001 173     9     7     1    30     0     0     0
 2001 174    10     8     1    30     0     0     0
 2001 175    11     9     1    30     0     0     0
 2001 176    12    10     1    30     0     0     0
 2001 177    13    11     1    30     0     0     0
 2001 178    14    12     1    30     0     0     0
 2001 179    15    13     1    30     0     0     0
 2001 180    16    14     1    30     0     0     0
 2001 181    17    15     1    30     0     0     0
 2001 182    18    16     1    30     0     0     0
 2001 183    19    17     1    30     0     0     0
 2001 184    20    18     1    30     0     0     0
 2001 185    21    19     1    30     0     0     0
 2001 186    22    20     1    30     0     0     0
 2001 187    23    21     1    30     0     0     0
 2001 188    24    22     1    30     0     0     0
 2001 189    25    23     1    30     0     0     0
 2001 190    26    24     1    30     0     0     0
 2001 191    27    25     1    30     0     0     0
 2001 192    28    26     1    30     0     0     0
 2001 193    29    27     1    30     0     0     0
 2001 194    30    28     1    30     0     0     0
 2001 195    31    29     1    30     0     0     0
 2001 196    32    30     1    30     0     0     0
 2001 197    33    31     1    30     0     0     0
 2001 198    34    32     1    30     0     0     0
 2001 199    35    33     1    30     0     0     0
 2001 200    36    34     1    30     0     0     0
 2001 201    37    35     1    30     0     0     0
 2001 202    38    36     1    30     0     0     0
 2001 203    39    37     1    30     0     0     0
 2001 204    40    38     1    30     0     0     0
 2001 205    41    39     1    30     0     0     0
 2001 206    42    40     1    30     0     0     0
 2001 207    43    41     1    30     0     0     0
 2001 208    44    42     1    30     0     0     0
 2001 209    45    43     1    30     0     0     0
 2001 210    46    44     1    30     0     0     0
 2001 211    47    45     2    60     0     0     0
 2001 212    48    46     2    60     0     0     0
 2001 213    49    47     2    60     0     0     0
 2001 214    50    48     2    60     0     0     0
 2001 215    51    49     2    60     0     0     0
 2001 216    52    50     2    60     0     0     0
 2001 217    53    51     2    60     0     0     0
 2001 218    54    52     2    60     0     0     0
 2001 219    55    53     2    60     0     0     0
 2001 220    56    54     2    60     0     0     0
 2001 221    57    55     2    60     0     0     0
 2001 222    58    56     2    60     0     0     0
 2001 223    59    57     2    60     0     0     0
 2001 224    60    58     2    60     0     0     0
 2001 225    61    59     2    60     0     0     0
 2001 226    62    60     2    60     0     0     0
 2001 227    63    61     2    60     0     0     0
 2001 228    64    62     2    60     0     0     0
 2001 229    65    63     2    60     0     0     0
 2001 230    66    64     2    60     0     0     0
 2001 231    67    65     2    60     0     0     0
 2001 232    68    66     2    60     0     0     0
 2001 233    69    67     2    60     0     0     0
 2001 234    70    68     2    60     0     0     0
 2001 235    71    69     2    60     0     0     0
 2001 236    72    70     2    60     0     0     0
 2001 237    73    71     2    60     0     0     0
 2001 238    74    72     2    60     0     0     0
 2001 239    75    73     2    60     0     0     0
 2001 240    76    74     2    60     0     0     0
 2001 241    77    75     2    60     0     0     0
 2001 242    78    76     2    60     0     0     0
 2001 243    79    77     2    60     0     0     0
 2001 244    80    78     2    60     0     0     0
 2001 245    81    79     2    60     0     0     0
 2001 246    82    80     2    60     0     0     0
 2001 247    83    81     2    60     0     0     0
 2001 248    84    82     2    60     0     0     0
 2001 249    85    83     2    60     0     0     0
 2001 250    86    84     2    60     0     0     0
 2001 251    87    85     2    60     0     0     0
 2001 252    88    86     2    60     0     0     0
 2001 253    89    87     2    60     0     0     0
 2001 254    90    88     2    60     0     0     0
 2001 255    91    89     2    60     0     0     0
 2001 256    92    90     2    60     0     0     0
 2001 257    93    91     2    60     0     0     0
 2001 258    94    92     2    60     0     0     0
[...]
 2016 207    43    41     1    30     0     0     0
 2016 208    44    42     1    30     0     0     0
 2016 209    45    43     1    30     0     0     0
 2016 210    46    44     1    30     0     0     0
 2016 211    47    45     2    60     0     0     0
 2016 212    48    46     2    60     0     0     0
 2016 213    49    47     2    60     0     0     0
 2016 214    50    48     2    60     0     0     0
 2016 215    51    49     2    60     0     0     0
 2016 216    52    50     2    60     0     0     0
 2016 217    53    51     2    60     0     0     0
 2016 218    54    52     2    60     0     0     0
 2016 219    55    53     2    60     0     0     0
 2016 220    56    54     2    60     0     0     0
 2016 221    57    55     2    60     0     0     0
 2016 222    58    56     2    60     0     0     0
 2016 223    59    57     2    60     0     0     0
 2016 224    60    58     2    60     0     0     0
 2016 225    61    59     2    60     0     0     0
 2016 226    62    60     2    60     0     0     0
 2016 227    63    61     2    60     0     0     0
 2016 228    64    62     2    60     0     0     0
 2016 229    65    63     2    60     0     0     0
 2016 230    66    64     2    60     0     0     0
 2016 231    67    65     2    60     0     0     0
 2016 232    68    66     2    60     0     0     0
 2016 233    69    67     2    60     0     0     0
 2016 234    70    68     2    60     0     0     0
 2016 235    71    69     2    60     0     0     0
 2016 236    72    70     2    60     0     0     0
 2016 237    73    71     2    60     0     0     0
 2016 238    74    72     2    60     0     0     0
 2016 239    75    73     2    60     0     0     0
 2016 240    76    74     2    60     0     0     0
 2016 241    77    75     2    60     0     0     0
 2016 242    78    76     2    60     0     0     0
 2016 243    79    77     2    60     0     0     0
 2016 244    80    78     2    60     0     0     0
 2016 245    81    79     2    60     0     0     0
 2016 246    82    80     2    60     0     0     0
 2016 247    83    81     2    60     0     0     0
 2016 248    84    82     2    60     0     0     0
 2016 249    85    83     2    60     0     0     0
 2016 250    86    84     2    60     0     0     0
 2016 251    87    85     2    60     0     0     0
 2016 252    88    86     2    60     0     0     0
 2016 253    89    87     2    60     0     0     0
 2016 254    90    88     2    60     0     0     0
 2016 255    91    89     2    60     0     0     0
 2016 256    92    90     2    60     0     0     0
 2016 257    93    91     2    60     0     0     0
 2016 258    94    92     2    60     0     0     0
 2016 259    95    93     2    60     0     0     0
 2016 260    96    94     2    60     0     0     0
 2016 261    97    95     2    60     0     0     0
 2016 262    98    96     2    60     0     0     0
 2016 263    99    97     2    60     0     0     0
 2016 264   100    98     2    60     0     0     0
 2016 265   101    99     2    60     0     0     0
 2016 266   102   100     2    60     0     0     0
 2016 267   103   101     2    60     0     0     0
 2016 268   104   102     2    60     0     0     0
 2016 269   105   103     2    60     0     0     0
 2016 270   106   104     2    60     0     0     0
 2016 271   107   105     2    60     0     0     0
 2016 272   108   106     2    60     0     0     0
 2016 273   109   107     2    60     0     0     0
 2016 274   110   108     2    60     0     0     0
 2016 275   111   109     2    60     0     0     0
 2016 276   112   110     2    60     0     0     0
 2016 277   113   111     2    60     0     0     0
 2016 278   114   112     2    60     0     0     0
 2016 279   115   113     2    60     0     0     0
 2016 280   116   114     2    60     0     0     0
 2016 281   117   115     2    60     0     0     0
 2016 282   118   116     2    60     0     0     0
 2016 283   119   117     2    60     0     0     0
 2016 284   120   118     2    60     0     0     0
 2016 285   121   119     2    60     0     0     0
 2016 286   122   120     2    60     0     0     0
 2016 287   123   121     2    60     0     0     0
 2016 288   124   122     2    60     0     0     0
 2016 289   125   123     2    60     0     0     0
 2016 290   126   124     2    60     0     0     0
 2016 291   127   125     2    60     0     0     0
 2016 292   128   126     2    60     0     0     0
 2016 293   129   127     2    60     0     0     0
 2016 294   130   128     2    60     0     0     0
 2016 295   131   129     2    60     0     0     0
 2016 296   132   130     2    60     0     0     0

*DSSAT Cropping System Model Ver. 4.7.5.008 -release  JAN 15, 2021 21:49:57

*RUN  27        : ERiMA DCC1                MZCER047 ETMZpolo    1
 MODEL          : MZCER047 - Maize
 EXPERIMENT     : ETMZpolo SN MELKSSAL
 DATA PATH      : C:\Users\kpodo\Documents\GitHub\ET_DSS_hist_Eunjin\TEST\
 TREATMENT  1   : ERiMA DCC1                MZCER047
  

@YEAR DOY   DAS   DAP  NAPC  NICM  R#AC RESNC RESPC
 2017 165     1     0     0     0     0     0     0
 2017 166     2     0     1    30     0     0     0
 2017 167     3     1     1    30     0     0     0
 2017 168     4     2     1    30     0     0     0
 2017 169     5     3     1    30     0     0     0
 2017 170     6     4     1    30     0     0     0
 2017 171     7     5     1    30     0     0     0
 2017 172     8     6     1    30     0     0     0
 2017 173     9     7     1    30     0     0     0
 2017 174    10     8     1    30     0     0     0
 2017 175    11     9     1    30     0     0     0
 2017 176    12    10     1    30     0     0     0
 2017 177    13    11     1    30     0     0     0
 2017 178    14    12     1    30     0     0     0
 2017 179    15    13     1    30     0     0     0
 2017 180    16    14     1    30     0     0     0
 2017 181    17    15     1    30     0     0     0
 2017 182    18    16     1    30     0     0     0
 2017 183    19    17     1    30     0     0     0
 2017 184    20    18     1    30     0     0     0
 2017 185    21    19     1    30     0     0     0
 2017 186    22    20     1    30     0     0     0
 2017 187    23    21     1    30     0     0     0
 2017 188    24    22     1    30     0     0     0
 2017 189    25    23     1    30     0     0     0
 2017 190    26    24     1    30     0     0     0
 2017 191    27    25     1    30     0     0     0
 2017 192    28    26     1    30     0     0     0
 2017 193    29    27     1    30     0     0     0
 2017 194    30    28     1    30     0     0     0
 2017 195    31    29     1    30     0     0     0
 2017 196    32    30     1    30     0     0     0
 2017 197    33    31     1    30     0     0     0
 2017 198    34    32     1    30     0     0     0
 2017 199    35    33     1    30     0     0     0
 2017 200    36    34     1    30     0     0     0
 2017 201    37    35     1    30     0     0     0
 2017 202    38    36     1    30     0     0     0
 2017 203    39    37     1    30     0     0     0
 2017 204    40    38     1    30     0     0     0
 2017 205    41    39     1    30     0     0     0
 2017 206    42    40     1    30     0     0     0
 2017 207    43    41     1    30     0     0     0
 2017 208    44    42     1    30     0     0     0
 2017 209    45    43     1    30     0     0     0
 2017 210    46    44     1    30     0     0     0
 2017 211    47    45     2    60     0     0     0
 2017 212    48    46     2    60     0     0     0
 2017 213    49    47     2    60     0     0     0
 2017 214    50    48     2    60     0     0     0
 2017 215    51    49     2    60     0     0     0
 2017 216    52    50     2    60     0     0     0
 2017 217    53    51     2    60     0     0     0
 2017 218    54    52     2    60     0     0     0
 2017 219    55    53     2    60     0     0     0
 2017 220    56    54     2    60     0     0     0
 2017 221    57    55     2    60     0     0     0
 2017 222    58    56     2    60     0     0     0
 2017 223    59    57     2    60     0     0     0
 2017 224    60    58     2    60     0     0     0
 2017 225    61    59     2    60     0     0     0
 2017 226    62    60     2    60     0     0     0
 2017 227    63    61     2    60     0     0     0
 2017 228    64    62     2    60     0     0     0
 2017 229    65    63     2    60     0     0     0
 2017 230    66    64     2    60     0     0     0
 2017 231    67    65     2    60     0     0     0
 2017 232    68    66     2    60     0     0     0
 2017 233    69    67     2    60     0     0     0
 2017 234    70    68     2    60     0     0     0
 2017 235    71    69     2    60     0     0     0
 2017 236    72    70     2    60     0     0     0
 2017 237    73    71     2    60     0     0     0
 2017 238    74    72     2    60     0     0     0
 2017 239    75    73     2    60     0     0     0
 2017 240    76    74     2    60     0     0     0
 2017 241    77    75     2    60     0     0     0
 2017 242    78    76     2    60     0     0     0
 2017 243    79    77     2    60     0     0     0
 2017 244    80    78     2    60     0     0     0
 2017 245    81    79     2    60     0     0     0
 2017 246    82    80     2    60     0     0     0
 2017 247    83    81     2    60     0     0     0
 2017 248    84    82     2    60     0     0     0
 2017 249    85    83     2    60     0     0     0
 2017 250    86    84     2    60     0     0     0
 2017 251    87    85     2    60     0     0     0
 2017 252    88    86     2    60     0     0     0
 2017 253    89    87     2    60     0     0     0
 2017 254    90    88     2    60     0     0     0
 2017 255    91    89     2    60     0     0     0
 2017 256    92    90     2    60     0     0     0
 2017 257    93    91     2    60     0     0     0
 2017 258    94    92     2    60     0     0     0
 2017 259    95    93     2    60     0     0     0
 2017 260    96    94     2    60     0     0     0
 2017 261    97    95     2    60     0     0     0
 2017 262    98    96     2    60     0     0     0
 2017 263    99    97     2    60     0     0     0
 2017 264   100    98     2    60     0     0     0
 2017 265   101    99     2    60     0     0     0
 2017 266   102   100     2    60     0     0     0
 2017 267   103   101     2    60     0     0     0
 2017 268   104   102     2    60     0     0     0
 2017 269   105   103     2    60     0     0     0
 2017 270   106   104     2    60     0     0     0
 2017 271   107   105     2    60     0     0     0
 2017 272   108   106     2    60     0     0     0
 2017 273   109   107     2    60     0     0     0
 2017 274   110   108     2    60     0     0     0
 2017 275   111   109     2    60     0     0     0
 2017 276   112   110     2    60     0     0     0
 2017 277   113   111     2    60     0     0     0
 2017 278   114   112     2    60     0     0     0
 2017 279   115   113     2    60     0     0     0
 2017 280   116   114     2    60     0     0     0
 2017 281   117   115     2    60     0     0     0
 2017 282   118   116     2    60     0     0     0
 2017 283   119   117     2    60     0     0     0
 2017 284   120   118     2    60     0     0     0
 2017 285   121   119     2    60     0     0     0
 2017 286   122   120     2    60     0     0     0
 2017 287   123   121     2    60     0     0     0
 2017 288   124   122     2    60     0     0     0
 2017 289   125   123     2    60     0     0     0
 2017 290   126   124     2    60     0     0     0
 2017 291   127   125     2    60     0     0     0
 2017 292   128   126     2    60     0     0     0
 2017 293   129   127     2    60     0     0     0
 2017 294   130   128     2    60     0     0     0
 2017 295   131   129     2    60     0     0     0
 2017 296   132   130     2    60     0     0     0
 2017 297   133   131     2    60     0     0     0
 2017 298   134   132     2    60     0     0     0
 2017 299   135   133     2    60     0     0     0
 2017 300   136   134     2    60     0     0     0
 2017 301   137   135     2    60     0     0     0
 2017 302   138   136     2    60     0     0     0
 2017 303   139   137     2    60     0     0     0
 2017 304   140   138     2    60     0     0     0
 2017 305   141   139     2    60     0     0     0
 2017 306   142   140     2    60     0     0     0
 2017 307   143   141     2    60     0     0     0
 2017 308   144   142     2    60     0     0     0
 2017 309   145   143     2    60     0     0     0

*DSSAT Cropping System Model Ver. 4.7.5.008 -release  JAN 15, 2021 21:49:57

*RUN  28        : ERiMA DCC1                MZCER047 ETMZpolo    1
 MODEL          : MZCER047 - Maize
 EXPERIMENT     : ETMZpolo SN MELKSSAL
 DATA PATH      : C:\Users\kpodo\Documents\GitHub\ET_DSS_hist_Eunjin\TEST\
 TREATMENT  1   : ERiMA DCC1                MZCER047
  

@YEAR DOY   DAS   DAP  NAPC  NICM  R#AC RESNC RESPC
 2018 165     1     0     0     0     0     0     0
 2018 166     2     0     1    30     0     0     0
 2018 167     3     1     1    30     0     0     0
 2018 168     4     2     1    30     0     0     0
 2018 169     5     3     1    30     0     0     0
 2018 170     6     4     1    30     0     0     0
 2018 171     7     5     1    30     0     0     0
 2018 172     8     6     1    30     0     0     0
 2018 173     9     7     1    30     0     0     0
 2018 174    10     8     1    30     0     0     0
 2018 175    11     9     1    30     0     0     0
 2018 176    12    10     1    30     0     0     0
 2018 177    13    11     1    30     0     0     0
 2018 178    14    12     1    30     0     0     0
 2018 179    15    13     1    30     0     0     0
 2018 180    16    14     1    30     0     0     0
 2018 181    17    15     1    30     0     0     0
 2018 182    18    16     1    30     0     0     0
 2018 183    19    17     1    30     0     0     0
 2018 184    20    18     1    30     0     0     0
 2018 185    21    19     1    30     0     0     0
 2018 186    22    20     1    30     0     0     0
 2018 187    23    21     1    30     0     0     0
 2018 188    24    22     1    30     0     0     0
 2018 189    25    23     1    30     0     0     0
 2018 190    26    24     1    30     0     0     0
 2018 191    27    25     1    30     0     0     0
 2018 192    28    26     1    30     0     0     0
 2018 193    29    27     1    30     0     0     0
 2018 194    30    28     1    30     0     0     0
 2018 195    31    29     1    30     0     0     0
 2018 196    32    30     1    30     0     0     0
 2018 197    33    31     1    30     0     0     0
 2018 198    34    32     1    30     0     0     0
 2018 199    35    33     1    30     0     0     0
 2018 200    36    34     1    30     0     0     0
 2018 201    37    35     1    30     0     0     0
 2018 202    38    36     1    30     0     0     0
 2018 203    39    37     1    30     0     0     0
 2018 204    40    38     1    30     0     0     0
 2018 205    41    39     1    30     0     0     0
 2018 206    42    40     1    30     0     0     0
 2018 207    43    41     1    30     0     0     0
 2018 208    44    42     1    30     0     0     0
 2018 209    45    43     1    30     0     0     0
 2018 210    46    44     1    30     0     0     0
 2018 211    47    45     2    60     0     0     0
 2018 212    48    46     2    60     0     0     0
 2018 213    49    47     2    60     0     0     0
 2018 214    50    48     2    60     0     0     0
 2018 215    51    49     2    60     0     0     0
 2018 216    52    50     2    60     0     0     0
 2018 217    53    51     2    60     0     0     0
 2018 218    54    52     2    60     0     0     0
 2018 219    55    53     2    60     0     0     0
 2018 220    56    54     2    60     0     0     0
 2018 221    57    55     2    60     0     0     0
 2018 222    58    56     2    60     0     0     0
 2018 223    59    57     2    60     0     0     0
 2018 224    60    58     2    60     0     0     0
 2018 225    61    59     2    60     0     0     0
 2018 226    62    60     2    60     0     0     0
 2018 227    63    61     2    60     0     0     0
 2018 228    64    62     2    60     0     0     0
 2018 229    65    63     2    60     0     0     0
 2018 230    66    64     2    60     0     0     0
 2018 231    67    65     2    60     0     0     0
 2018 232    68    66     2    60     0     0     0
 2018 233    69    67     2    60     0     0     0
 2018 234    70    68     2    60     0     0     0
 2018 235    71    69     2    60     0     0     0
 2018 236    72    70     2    60     0     0     0
 2018 237    73    71     2    60     0     0     0
 2018 238    74    72     2    60     0     0     0
 2018 239    75    73     2    60     0     0     0
 2018 240    76    74     2    60     0     0     0
 2018 241    77    75     2    60     0     0     0
 2018 242    78    76     2    60     0     0     0
 2018 243    79    77     2    60     0     0     0
 2018 244    80    78     2    60     0     0     0
 2018 245    81    79     2    60     0     0     0
 2018 246    82    80     2    60     0     0     0
 2018 247    83    81     2    60     0     0     0
 2018 248    84    82     2    60     0     0     0
 2018 249    85    83     2    60     0     0     0
 2018 250    86    84     2    60     0     0     0
 2018 251    87    85     2    60     0     0     0
 2018 252    88    86     2    60     0     0     0
 2018 253    89    87     2    60     0     0     0
 2018 254    90    88     2    60     0     0     0
 2018 255    91    89     2    60     0     0     0
 2018 256    92    90     2    60     0     0     0
 2018 257    93    91     2    60     0     0     0
 2018 258    94    92     2    60     0     0     0
 2018 259    95    93     2    60     0     0     0
 2018 260    96    94     2    60     0     0     0
 2018 261    97    95     2    60     0     0     0
 2018 262    98    96     2    60     0     0     0
 2018 263    99    97     2    60     0     0     0
 2018 264   100    98     2    60     0     0     0
 2018 265   101    99     2    60     0     0     0
 2018 266   102   100     2    60     0     0     0
 2018 267   103   101     2    60     0     0     0
 2018 268   104   102     2    60     0     0     0
 2018 269   105   103     2    60     0     0     0
 2018 270   106   104     2    60     0     0     0
 2018 271   107   105     2    60     0     0     0
 2018 272   108   106     2    60     0     0     0
 2018 273   109   107     2    60     0     0     0
 2018 274   110   108     2    60     0     0     0
 2018 275   111   109     2    60     0     0     0
 2018 276   112   110     2    60     0     0     0
 2018 277   113   111     2    60     0     0     0
 2018 278   114   112     2    60     0     0     0
 2018 279   115   113     2    60     0     0     0
 2018 280   116   114     2    60     0     0     0
 2018 281   117   115     2    60     0     0     0
 2018 282   118   116     2    60     0     0     0
 2018 283   119   117     2    60     0     0     0
 2018 284   120   118     2    60     0     0     0
 2018 285   121   119     2    60     0     0     0
 2018 286   122   120     2    60     0     0     0
 2018 287   123   121     2    60     0     0     0
 2018 288   124   122     2    60     0     0     0
 2018 289   125   123     2    60     0     0     0
 2018 290   126   124     2    60     0     0     0
 2018 291   127   125     2    60     0     0     0
 2018 292   128   126     2    60     0     0     0
 2018 293   129   127     2    60     0     0     0
 2018 294   130   128     2    60     0     0     0
 2018 295   131   129     2    60     0     0     0
 2018 296   132   130     2    60     0     0     0
 2018 297   133   131     2    60     0     0     0
 2018 298   134   132     2    60     0     0     0
