*MANAGEMENT OPERATIONS EVENT SUMMARY

*DSSAT Cropping System Model Ver. 4.7.5.008 -release  JAN 15, 2021 21:49:57
!---------------------------------------------------------------------------------------------
@RUN Date........  DOY    DAS    DAP  CR  Stage         Operation       Quantities
!---------------------------------------------------------------------------------------------
   1 JUN 14, 1991  165      1      0  MZ  14 Start Sim 
   1 JUN 15, 1991  166      2      0  MZ                Planting       
   1 JUN 15, 1991  166      2      0  MZ  07 Sowing    
   1 JUN 15, 1991  166      2      0  MZ                Fertilizer         30. kg[N]/ha 
   1 JUN 16, 1991  167      3      1  MZ  08 Germinate 
   1 JUN 20, 1991  171      7      5  MZ  09 Emergence 
   1 JUL  6, 1991  187     23     21  MZ  01 End Juveni
   1 JUL 11, 1991  192     28     26  MZ  02 Floral Ini
   1 JUL 30, 1991  211     47     45  MZ                Fertilizer         30. kg[N]/ha 
   1 AUG 23, 1991  235     71     69  MZ  03 75% Silkin
   1 SEP  6, 1991  249     85     83  MZ  04 Beg Gr Fil
   1 OCT 18, 1991  291    127    125  MZ  05 End Gr Fil
   1 OCT 19, 1991  292    128    126  MZ  16 Harvest   
   1 OCT 19, 1991  292    128    126  MZ                Harvest Yield    3157. kg/ha
 

*DSSAT Cropping System Model Ver. 4.7.5.008 -release  JAN 15, 2021 21:49:57
!---------------------------------------------------------------------------------------------
@RUN Date........  DOY    DAS    DAP  CR  Stage         Operation       Quantities
!---------------------------------------------------------------------------------------------
   2 JUN 13, 1992  165      1      0  MZ  14 Start Sim 
   2 JUN 14, 1992  166      2      0  MZ                Planting       
   2 JUN 14, 1992  166      2      0  MZ  07 Sowing    
   2 JUN 14, 1992  166      2      0  MZ                Fertilizer         30. kg[N]/ha 
   2 JUN 15, 1992  167      3      1  MZ  08 Germinate 
   2 JUN 19, 1992  171      7      5  MZ  09 Emergence 
   2 JUL  4, 1992  186     22     20  MZ  01 End Juveni
   2 JUL  9, 1992  191     27     25  MZ  02 Floral Ini
   2 JUL 29, 1992  211     47     45  MZ                Fertilizer         30. kg[N]/ha 
   2 AUG 20, 1992  233     69     67  MZ  03 75% Silkin
   2 SEP  4, 1992  248     84     82  MZ  04 Beg Gr Fil
   2 OCT 27, 1992  301    137    135  MZ  05 End Gr Fil
   2 OCT 31, 1992  305    141    139  MZ  16 Harvest   
   2 OCT 31, 1992  305    141    139  MZ                Harvest Yield    5109. kg/ha
 

*DSSAT Cropping System Model Ver. 4.7.5.008 -release  JAN 15, 2021 21:49:57
!---------------------------------------------------------------------------------------------
@RUN Date........  DOY    DAS    DAP  CR  Stage         Operation       Quantities
!---------------------------------------------------------------------------------------------
   3 JUN 14, 1993  165      1      0  MZ  14 Start Sim 
   3 JUN 15, 1993  166      2      0  MZ                Planting       
   3 JUN 15, 1993  166      2      0  MZ  07 Sowing    
   3 JUN 15, 1993  166      2      0  MZ                Fertilizer         30. kg[N]/ha 
   3 JUN 16, 1993  167      3      1  MZ  08 Germinate 
   3 JUN 21, 1993  172      8      6  MZ  09 Emergence 
   3 JUL  6, 1993  187     23     21  MZ  01 End Juveni
   3 JUL 11, 1993  192     28     26  MZ  02 Floral Ini
   3 JUL 30, 1993  211     47     45  MZ                Fertilizer         30. kg[N]/ha 
   3 AUG 21, 1993  233     69     67  MZ  03 75% Silkin
   3 SEP  5, 1993  248     84     82  MZ  04 Beg Gr Fil
   3 OCT 25, 1993  298    134    132  MZ  05 End Gr Fil
   3 OCT 28, 1993  301    137    135  MZ  16 Harvest   
   3 OCT 28, 1993  301    137    135  MZ                Harvest Yield    4579. kg/ha
 

*DSSAT Cropping System Model Ver. 4.7.5.008 -release  JAN 15, 2021 21:49:57
!---------------------------------------------------------------------------------------------
@RUN Date........  DOY    DAS    DAP  CR  Stage         Operation       Quantities
!---------------------------------------------------------------------------------------------
   4 JUN 14, 1994  165      1      0  MZ  14 Start Sim 
   4 JUN 15, 1994  166      2      0  MZ                Planting       
   4 JUN 15, 1994  166      2      0  MZ  07 Sowing    
   4 JUN 15, 1994  166      2      0  MZ                Fertilizer         30. kg[N]/ha 
   4 JUN 16, 1994  167      3      1  MZ  08 Germinate 
   4 JUN 20, 1994  171      7      5  MZ  09 Emergence 
   4 JUL  4, 1994  185     21     19  MZ  01 End Juveni
   4 JUL  9, 1994  190     26     24  MZ  02 Floral Ini
   4 JUL 30, 1994  211     47     45  MZ                Fertilizer         30. kg[N]/ha 
   4 AUG 19, 1994  231     67     65  MZ  03 75% Silkin
   4 SEP  3, 1994  246     82     80  MZ  04 Beg Gr Fil
   4 OCT 25, 1994  298    134    132  MZ  05 End Gr Fil
   4 OCT 26, 1994  299    135    133  MZ  16 Harvest   
   4 OCT 26, 1994  299    135    133  MZ                Harvest Yield    3822. kg/ha
 

*DSSAT Cropping System Model Ver. 4.7.5.008 -release  JAN 15, 2021 21:49:57
!---------------------------------------------------------------------------------------------
@RUN Date........  DOY    DAS    DAP  CR  Stage         Operation       Quantities
!---------------------------------------------------------------------------------------------
   5 JUN 14, 1995  165      1      0  MZ  14 Start Sim 
   5 JUN 15, 1995  166      2      0  MZ                Planting       
   5 JUN 15, 1995  166      2      0  MZ  07 Sowing    
   5 JUN 15, 1995  166      2      0  MZ                Fertilizer         30. kg[N]/ha 
   5 JUN 16, 1995  167      3      1  MZ  08 Germinate 
   5 JUN 20, 1995  171      7      5  MZ  09 Emergence 
   5 JUL  4, 1995  185     21     19  MZ  01 End Juveni
   5 JUL  9, 1995  190     26     24  MZ  02 Floral Ini
   5 JUL 30, 1995  211     47     45  MZ                Fertilizer         30. kg[N]/ha 
   5 AUG 19, 1995  231     67     65  MZ  03 75% Silkin
   5 SEP  2, 1995  245     81     79  MZ  04 Beg Gr Fil
   5 OCT 19, 1995  292    128    126  MZ  05 End Gr Fil
   5 OCT 22, 1995  295    131    129  MZ  16 Harvest   
   5 OCT 22, 1995  295    131    129  MZ                Harvest Yield    4034. kg/ha
 

*DSSAT Cropping System Model Ver. 4.7.5.008 -release  JAN 15, 2021 21:49:57
!---------------------------------------------------------------------------------------------
@RUN Date........  DOY    DAS    DAP  CR  Stage         Operation       Quantities
!---------------------------------------------------------------------------------------------
   6 JUN 13, 1996  165      1      0  MZ  14 Start Sim 
   6 JUN 14, 1996  166      2      0  MZ                Planting       
   6 JUN 14, 1996  166      2      0  MZ  07 Sowing    
   6 JUN 14, 1996  166      2      0  MZ                Fertilizer         30. kg[N]/ha 
   6 JUN 15, 1996  167      3      1  MZ  08 Germinate 
   6 JUN 20, 1996  172      8      6  MZ  09 Emergence 
   6 JUL  5, 1996  187     23     21  MZ  01 End Juveni
   6 JUL 10, 1996  192     28     26  MZ  02 Floral Ini
   6 JUL 29, 1996  211     47     45  MZ                Fertilizer         30. kg[N]/ha 
   6 AUG 21, 1996  234     70     68  MZ  03 75% Silkin
   6 SEP  4, 1996  248     84     82  MZ  04 Beg Gr Fil
   6 OCT 25, 1996  299    135    133  MZ  05 End Gr Fil
   6 OCT 28, 1996  302    138    136  MZ  16 Harvest   
   6 OCT 28, 1996  302    138    136  MZ                Harvest Yield    3925. kg/ha
 

*DSSAT Cropping System Model Ver. 4.7.5.008 -release  JAN 15, 2021 21:49:57
!---------------------------------------------------------------------------------------------
@RUN Date........  DOY    DAS    DAP  CR  Stage         Operation       Quantities
!---------------------------------------------------------------------------------------------
   7 JUN 14, 1997  165      1      0  MZ  14 Start Sim 
   7 JUN 15, 1997  166      2      0  MZ                Planting       
   7 JUN 15, 1997  166      2      0  MZ  07 Sowing    
   7 JUN 15, 1997  166      2      0  MZ                Fertilizer         30. kg[N]/ha 
   7 JUN 16, 1997  167      3      1  MZ  08 Germinate 
   7 JUN 21, 1997  172      8      6  MZ  09 Emergence 
   7 JUL  6, 1997  187     23     21  MZ  01 End Juveni
   7 JUL 11, 1997  192     28     26  MZ  02 Floral Ini
   7 JUL 30, 1997  211     47     45  MZ                Fertilizer         30. kg[N]/ha 
   7 AUG 20, 1997  232     68     66  MZ  03 75% Silkin
   7 SEP  2, 1997  245     81     79  MZ  04 Beg Gr Fil
   7 OCT 16, 1997  289    125    123  MZ  05 End Gr Fil
   7 OCT 17, 1997  290    126    124  MZ  16 Harvest   
   7 OCT 17, 1997  290    126    124  MZ                Harvest Yield    3396. kg/ha
 

*DSSAT Cropping System Model Ver. 4.7.5.008 -release  JAN 15, 2021 21:49:57
!---------------------------------------------------------------------------------------------
@RUN Date........  DOY    DAS    DAP  CR  Stage         Operation       Quantities
!---------------------------------------------------------------------------------------------
   8 JUN 14, 1998  165      1      0  MZ  14 Start Sim 
   8 JUN 15, 1998  166      2      0  MZ                Planting       
   8 JUN 15, 1998  166      2      0  MZ  07 Sowing    
   8 JUN 15, 1998  166      2      0  MZ                Fertilizer         30. kg[N]/ha 
   8 JUN 16, 1998  167      3      1  MZ  08 Germinate 
   8 JUN 20, 1998  171      7      5  MZ  09 Emergence 
   8 JUL  4, 1998  185     21     19  MZ  01 End Juveni
   8 JUL  9, 1998  190     26     24  MZ  02 Floral Ini
   8 JUL 30, 1998  211     47     45  MZ                Fertilizer         30. kg[N]/ha 
   8 AUG 20, 1998  232     68     66  MZ  03 75% Silkin
   8 SEP  2, 1998  245     81     79  MZ  04 Beg Gr Fil
   8 OCT 23, 1998  296    132    130  MZ  05 End Gr Fil
   8 OCT 27, 1998  300    136    134  MZ  16 Harvest   
   8 OCT 27, 1998  300    136    134  MZ                Harvest Yield    4736. kg/ha
 

*DSSAT Cropping System Model Ver. 4.7.5.008 -release  JAN 15, 2021 21:49:57
!---------------------------------------------------------------------------------------------
@RUN Date........  DOY    DAS    DAP  CR  Stage         Operation       Quantities
!---------------------------------------------------------------------------------------------
   9 JUN 14, 1999  165      1      0  MZ  14 Start Sim 
   9 JUN 15, 1999  166      2      0  MZ                Planting       
   9 JUN 15, 1999  166      2      0  MZ  07 Sowing    
   9 JUN 15, 1999  166      2      0  MZ                Fertilizer         30. kg[N]/ha 
   9 JUN 16, 1999  167      3      1  MZ  08 Germinate 
   9 JUN 20, 1999  171      7      5  MZ  09 Emergence 
   9 JUL  5, 1999  186     22     20  MZ  01 End Juveni
   9 JUL 10, 1999  191     27     25  MZ  02 Floral Ini
   9 JUL 30, 1999  211     47     45  MZ                Fertilizer         30. kg[N]/ha 
   9 AUG 22, 1999  234     70     68  MZ  03 75% Silkin
   9 SEP  7, 1999  250     86     84  MZ  04 Beg Gr Fil
   9 OCT 31, 1999  304    140    138  MZ  05 End Gr Fil
   9 NOV  4, 1999  308    144    142  MZ  16 Harvest   
   9 NOV  4, 1999  308    144    142  MZ                Harvest Yield    4153. kg/ha
 

*DSSAT Cropping System Model Ver. 4.7.5.008 -release  JAN 15, 2021 21:49:57
!---------------------------------------------------------------------------------------------
@RUN Date........  DOY    DAS    DAP  CR  Stage         Operation       Quantities
!---------------------------------------------------------------------------------------------
  10 JUN 13, 2000  165      1      0  MZ  14 Start Sim 
  10 JUN 14, 2000  166      2      0  MZ                Planting       
  10 JUN 14, 2000  166      2      0  MZ  07 Sowing    
  10 JUN 14, 2000  166      2      0  MZ                Fertilizer         30. kg[N]/ha 
  10 JUN 15, 2000  167      3      1  MZ  08 Germinate 
  10 JUN 19, 2000  171      7      5  MZ  09 Emergence 
  10 JUL  5, 2000  187     23     21  MZ  01 End Juveni
  10 JUL 10, 2000  192     28     26  MZ  02 Floral Ini
  10 JUL 29, 2000  211     47     45  MZ                Fertilizer         30. kg[N]/ha 
  10 AUG 21, 2000  234     70     68  MZ  03 75% Silkin
  10 SEP  4, 2000  248     84     82  MZ  04 Beg Gr Fil
  10 OCT 28, 2000  302    138    136  MZ  05 End Gr Fil
  10 NOV  1, 2000  306    142    140  MZ  16 Harvest   
  10 NOV  1, 2000  306    142    140  MZ                Harvest Yield    4901. kg/ha
 

*DSSAT Cropping System Model Ver. 4.7.5.008 -release  JAN 15, 2021 21:49:57
!---------------------------------------------------------------------------------------------
@RUN Date........  DOY    DAS    DAP  CR  Stage         Operation       Quantities
!---------------------------------------------------------------------------------------------
  11 JUN 14, 2001  165      1      0  MZ  14 Start Sim 
  11 JUN 15, 2001  166      2      0  MZ                Planting       
  11 JUN 15, 2001  166      2      0  MZ  07 Sowing    
  11 JUN 15, 2001  166      2      0  MZ                Fertilizer         30. kg[N]/ha 
  11 JUN 16, 2001  167      3      1  MZ  08 Germinate 
  11 JUN 20, 2001  171      7      5  MZ  09 Emergence 
  11 JUL  6, 2001  187     23     21  MZ  01 End Juveni
  11 JUL 11, 2001  192     28     26  MZ  02 Floral Ini
  11 JUL 30, 2001  211     47     45  MZ                Fertilizer         30. kg[N]/ha 
  11 AUG 23, 2001  235     71     69  MZ  03 75% Silkin
  11 SEP  5, 2001  248     84     82  MZ  04 Beg Gr Fil
  11 OCT 24, 2001  297    133    131  MZ  05 End Gr Fil
  11 OCT 27, 2001  300    136    134  MZ  16 Harvest   
  11 OCT 27, 2001  300    136    134  MZ                Harvest Yield    3572. kg/ha
 

*DSSAT Cropping System Model Ver. 4.7.5.008 -release  JAN 15, 2021 21:49:57
!---------------------------------------------------------------------------------------------
@RUN Date........  DOY    DAS    DAP  CR  Stage         Operation       Quantities
!---------------------------------------------------------------------------------------------
  12 JUN 14, 2002  165      1      0  MZ  14 Start Sim 
  12 JUN 15, 2002  166      2      0  MZ                Planting       
  12 JUN 15, 2002  166      2      0  MZ  07 Sowing    
  12 JUN 15, 2002  166      2      0  MZ                Fertilizer         30. kg[N]/ha 
  12 JUN 16, 2002  167      3      1  MZ  08 Germinate 
  12 JUN 20, 2002  171      7      5  MZ  09 Emergence 
  12 JUL  5, 2002  186     22     20  MZ  01 End Juveni
  12 JUL 10, 2002  191     27     25  MZ  02 Floral Ini
  12 JUL 30, 2002  211     47     45  MZ                Fertilizer         30. kg[N]/ha 
  12 AUG 20, 2002  232     68     66  MZ  03 75% Silkin
  12 SEP  2, 2002  245     81     79  MZ  04 Beg Gr Fil
  12 OCT 17, 2002  290    126    124  MZ  05 End Gr Fil
  12 OCT 18, 2002  291    127    125  MZ  16 Harvest   
  12 OCT 18, 2002  291    127    125  MZ                Harvest Yield    3415. kg/ha
 

*DSSAT Cropping System Model Ver. 4.7.5.008 -release  JAN 15, 2021 21:49:57
!---------------------------------------------------------------------------------------------
@RUN Date........  DOY    DAS    DAP  CR  Stage         Operation       Quantities
!---------------------------------------------------------------------------------------------
  13 JUN 14, 2003  165      1      0  MZ  14 Start Sim 
  13 JUN 15, 2003  166      2      0  MZ                Planting       
  13 JUN 15, 2003  166      2      0  MZ  07 Sowing    
  13 JUN 15, 2003  166      2      0  MZ                Fertilizer         30. kg[N]/ha 
  13 JUN 16, 2003  167      3      1  MZ  08 Germinate 
  13 JUN 20, 2003  171      7      5  MZ  09 Emergence 
  13 JUL  5, 2003  186     22     20  MZ  01 End Juveni
  13 JUL 10, 2003  191     27     25  MZ  02 Floral Ini
  13 JUL 30, 2003  211     47     45  MZ                Fertilizer         30. kg[N]/ha 
  13 AUG 19, 2003  231     67     65  MZ  03 75% Silkin
  13 SEP  2, 2003  245     81     79  MZ  04 Beg Gr Fil
  13 OCT 20, 2003  293    129    127  MZ  05 End Gr Fil
  13 OCT 24, 2003  297    133    131  MZ  16 Harvest   
  13 OCT 24, 2003  297    133    131  MZ                Harvest Yield    4068. kg/ha
 

*DSSAT Cropping System Model Ver. 4.7.5.008 -release  JAN 15, 2021 21:49:57
!---------------------------------------------------------------------------------------------
@RUN Date........  DOY    DAS    DAP  CR  Stage         Operation       Quantities
!---------------------------------------------------------------------------------------------
  14 JUN 13, 2004  165      1      0  MZ  14 Start Sim 
  14 JUN 14, 2004  166      2      0  MZ                Planting       
  14 JUN 14, 2004  166      2      0  MZ  07 Sowing    
  14 JUN 14, 2004  166      2      0  MZ                Fertilizer         30. kg[N]/ha 
  14 JUN 15, 2004  167      3      1  MZ  08 Germinate 
  14 JUN 20, 2004  172      8      6  MZ  09 Emergence 
  14 JUL  5, 2004  187     23     21  MZ  01 End Juveni
  14 JUL 10, 2004  192     28     26  MZ  02 Floral Ini
  14 JUL 29, 2004  211     47     45  MZ                Fertilizer         30. kg[N]/ha 
  14 AUG 20, 2004  233     69     67  MZ  03 75% Silkin
  14 SEP  3, 2004  247     83     81  MZ  04 Beg Gr Fil
  14 OCT 25, 2004  299    135    133  MZ  05 End Gr Fil
  14 OCT 29, 2004  303    139    137  MZ  16 Harvest   
  14 OCT 29, 2004  303    139    137  MZ                Harvest Yield    4557. kg/ha
 

*DSSAT Cropping System Model Ver. 4.7.5.008 -release  JAN 15, 2021 21:49:57
!---------------------------------------------------------------------------------------------
@RUN Date........  DOY    DAS    DAP  CR  Stage         Operation       Quantities
!---------------------------------------------------------------------------------------------
  15 JUN 14, 2005  165      1      0  MZ  14 Start Sim 
  15 JUN 15, 2005  166      2      0  MZ                Planting       
  15 JUN 15, 2005  166      2      0  MZ  07 Sowing    
  15 JUN 15, 2005  166      2      0  MZ                Fertilizer         30. kg[N]/ha 
  15 JUN 16, 2005  167      3      1  MZ  08 Germinate 
  15 JUN 21, 2005  172      8      6  MZ  09 Emergence 
  15 JUL  6, 2005  187     23     21  MZ  01 End Juveni
  15 JUL 11, 2005  192     28     26  MZ  02 Floral Ini
  15 JUL 30, 2005  211     47     45  MZ                Fertilizer         30. kg[N]/ha 
  15 AUG 20, 2005  232     68     66  MZ  03 75% Silkin
  15 SEP  2, 2005  245     81     79  MZ  04 Beg Gr Fil
  15 OCT 20, 2005  293    129    127  MZ  05 End Gr Fil
  15 OCT 23, 2005  296    132    130  MZ  16 Harvest   
  15 OCT 23, 2005  296    132    130  MZ                Harvest Yield    3930. kg/ha
 

*DSSAT Cropping System Model Ver. 4.7.5.008 -release  JAN 15, 2021 21:49:57
!---------------------------------------------------------------------------------------------
@RUN Date........  DOY    DAS    DAP  CR  Stage         Operation       Quantities
!---------------------------------------------------------------------------------------------
  16 JUN 14, 2006  165      1      0  MZ  14 Start Sim 
  16 JUN 15, 2006  166      2      0  MZ                Planting       
  16 JUN 15, 2006  166      2      0  MZ  07 Sowing    
  16 JUN 15, 2006  166      2      0  MZ                Fertilizer         30. kg[N]/ha 
  16 JUN 16, 2006  167      3      1  MZ  08 Germinate 
  16 JUN 20, 2006  171      7      5  MZ  09 Emergence 
  16 JUL  5, 2006  186     22     20  MZ  01 End Juveni
  16 JUL 10, 2006  191     27     25  MZ  02 Floral Ini
  16 JUL 30, 2006  211     47     45  MZ                Fertilizer         30. kg[N]/ha 
  16 AUG 21, 2006  233     69     67  MZ  03 75% Silkin
  16 SEP  4, 2006  247     83     81  MZ  04 Beg Gr Fil
  16 OCT 19, 2006  292    128    126  MZ  05 End Gr Fil
  16 OCT 23, 2006  296    132    130  MZ  16 Harvest   
  16 OCT 23, 2006  296    132    130  MZ                Harvest Yield    4030. kg/ha
 

*DSSAT Cropping System Model Ver. 4.7.5.008 -release  JAN 15, 2021 21:49:57
!---------------------------------------------------------------------------------------------
@RUN Date........  DOY    DAS    DAP  CR  Stage         Operation       Quantities
!---------------------------------------------------------------------------------------------
  17 JUN 14, 2007  165      1      0  MZ  14 Start Sim 
  17 JUN 15, 2007  166      2      0  MZ                Planting       
  17 JUN 15, 2007  166      2      0  MZ  07 Sowing    
  17 JUN 15, 2007  166      2      0  MZ                Fertilizer         30. kg[N]/ha 
  17 JUN 16, 2007  167      3      1  MZ  08 Germinate 
  17 JUN 21, 2007  172      8      6  MZ  09 Emergence 
  17 JUL  7, 2007  188     24     22  MZ  01 End Juveni
  17 JUL 12, 2007  193     29     27  MZ  02 Floral Ini
  17 JUL 30, 2007  211     47     45  MZ                Fertilizer         30. kg[N]/ha 
  17 AUG 22, 2007  234     70     68  MZ  03 75% Silkin
  17 SEP  5, 2007  248     84     82  MZ  04 Beg Gr Fil
  17 OCT 25, 2007  298    134    132  MZ  05 End Gr Fil
  17 OCT 29, 2007  302    138    136  MZ  16 Harvest   
  17 OCT 29, 2007  302    138    136  MZ                Harvest Yield    3914. kg/ha
 

*DSSAT Cropping System Model Ver. 4.7.5.008 -release  JAN 15, 2021 21:49:57
!---------------------------------------------------------------------------------------------
@RUN Date........  DOY    DAS    DAP  CR  Stage         Operation       Quantities
!---------------------------------------------------------------------------------------------
  18 JUN 13, 2008  165      1      0  MZ  14 Start Sim 
  18 JUN 14, 2008  166      2      0  MZ                Planting       
  18 JUN 14, 2008  166      2      0  MZ  07 Sowing    
  18 JUN 14, 2008  166      2      0  MZ                Fertilizer         30. kg[N]/ha 
  18 JUN 15, 2008  167      3      1  MZ  08 Germinate 
  18 JUN 20, 2008  172      8      6  MZ  09 Emergence 
  18 JUL  5, 2008  187     23     21  MZ  01 End Juveni
  18 JUL 10, 2008  192     28     26  MZ  02 Floral Ini
  18 JUL 29, 2008  211     47     45  MZ                Fertilizer         30. kg[N]/ha 
  18 AUG 22, 2008  235     71     69  MZ  03 75% Silkin
  18 SEP  4, 2008  248     84     82  MZ  04 Beg Gr Fil
  18 OCT 23, 2008  297    133    131  MZ  05 End Gr Fil
  18 OCT 25, 2008  299    135    133  MZ  16 Harvest   
  18 OCT 25, 2008  299    135    133  MZ                Harvest Yield    4364. kg/ha
 

*DSSAT Cropping System Model Ver. 4.7.5.008 -release  JAN 15, 2021 21:49:57
!---------------------------------------------------------------------------------------------
@RUN Date........  DOY    DAS    DAP  CR  Stage         Operation       Quantities
!---------------------------------------------------------------------------------------------
  19 JUN 14, 2009  165      1      0  MZ  14 Start Sim 
  19 JUN 15, 2009  166      2      0  MZ                Planting       
  19 JUN 15, 2009  166      2      0  MZ  07 Sowing    
  19 JUN 15, 2009  166      2      0  MZ                Fertilizer         30. kg[N]/ha 
  19 JUN 16, 2009  167      3      1  MZ  08 Germinate 
  19 JUN 20, 2009  171      7      5  MZ  09 Emergence 
  19 JUL  5, 2009  186     22     20  MZ  01 End Juveni
  19 JUL 10, 2009  191     27     25  MZ  02 Floral Ini
  19 JUL 30, 2009  211     47     45  MZ                Fertilizer         30. kg[N]/ha 
  19 AUG 19, 2009  231     67     65  MZ  03 75% Silkin
  19 SEP  1, 2009  244     80     78  MZ  04 Beg Gr Fil
  19 OCT 19, 2009  292    128    126  MZ  05 End Gr Fil
  19 OCT 23, 2009  296    132    130  MZ  16 Harvest   
  19 OCT 23, 2009  296    132    130  MZ                Harvest Yield    4148. kg/ha
 

*DSSAT Cropping System Model Ver. 4.7.5.008 -release  JAN 15, 2021 21:49:57
!---------------------------------------------------------------------------------------------
@RUN Date........  DOY    DAS    DAP  CR  Stage         Operation       Quantities
!---------------------------------------------------------------------------------------------
  20 JUN 14, 2010  165      1      0  MZ  14 Start Sim 
  20 JUN 15, 2010  166      2      0  MZ                Planting       
  20 JUN 15, 2010  166      2      0  MZ  07 Sowing    
  20 JUN 15, 2010  166      2      0  MZ                Fertilizer         30. kg[N]/ha 
  20 JUN 16, 2010  167      3      1  MZ  08 Germinate 
  20 JUN 20, 2010  171      7      5  MZ  09 Emergence 
  20 JUL  4, 2010  185     21     19  MZ  01 End Juveni
  20 JUL  9, 2010  190     26     24  MZ  02 Floral Ini
  20 JUL 30, 2010  211     47     45  MZ                Fertilizer         30. kg[N]/ha 
  20 AUG 14, 2010  226     62     60  MZ  03 75% Silkin
  20 AUG 27, 2010  239     75     73  MZ  04 Beg Gr Fil
  20 OCT  9, 2010  282    118    116  MZ  05 End Gr Fil
  20 OCT 12, 2010  285    121    119  MZ  16 Harvest   
  20 OCT 12, 2010  285    121    119  MZ                Harvest Yield    4154. kg/ha
 

*DSSAT Cropping System Model Ver. 4.7.5.008 -release  JAN 15, 2021 21:49:57
!---------------------------------------------------------------------------------------------
@RUN Date........  DOY    DAS    DAP  CR  Stage         Operation       Quantities
!---------------------------------------------------------------------------------------------
  21 JUN 14, 2011  165      1      0  MZ  14 Start Sim 
  21 JUN 15, 2011  166      2      0  MZ                Planting       
  21 JUN 15, 2011  166      2      0  MZ  07 Sowing    
  21 JUN 15, 2011  166      2      0  MZ                Fertilizer         30. kg[N]/ha 
  21 JUN 16, 2011  167      3      1  MZ  08 Germinate 
  21 JUN 21, 2011  172      8      6  MZ  09 Emergence 
  21 JUL  7, 2011  188     24     22  MZ  01 End Juveni
  21 JUL 12, 2011  193     29     27  MZ  02 Floral Ini
  21 JUL 30, 2011  211     47     45  MZ                Fertilizer         30. kg[N]/ha 
  21 AUG 27, 2011  239     75     73  MZ  03 75% Silkin
  21 SEP 11, 2011  254     90     88  MZ  04 Beg Gr Fil
  21 NOV 11, 2011  315    151    149  MZ  05 End Gr Fil
  21 NOV 15, 2011  319    155    153  MZ  16 Harvest   
  21 NOV 15, 2011  319    155    153  MZ                Harvest Yield    4085. kg/ha
 

*DSSAT Cropping System Model Ver. 4.7.5.008 -release  JAN 15, 2021 21:49:57
!---------------------------------------------------------------------------------------------
@RUN Date........  DOY    DAS    DAP  CR  Stage         Operation       Quantities
!---------------------------------------------------------------------------------------------
  22 JUN 13, 2012  165      1      0  MZ  14 Start Sim 
  22 JUN 14, 2012  166      2      0  MZ                Planting       
  22 JUN 14, 2012  166      2      0  MZ  07 Sowing    
  22 JUN 14, 2012  166      2      0  MZ                Fertilizer         30. kg[N]/ha 
  22 JUN 15, 2012  167      3      1  MZ  08 Germinate 
  22 JUN 20, 2012  172      8      6  MZ  09 Emergence 
  22 JUL  7, 2012  189     25     23  MZ  01 End Juveni
  22 JUL 12, 2012  194     30     28  MZ  02 Floral Ini
  22 JUL 29, 2012  211     47     45  MZ                Fertilizer         30. kg[N]/ha 
  22 AUG 28, 2012  241     77     75  MZ  03 75% Silkin
  22 SEP 12, 2012  256     92     90  MZ  04 Beg Gr Fil
  22 NOV  6, 2012  311    147    145  MZ  05 End Gr Fil
  22 NOV  7, 2012  312    148    146  MZ  16 Harvest   
  22 NOV  7, 2012  312    148    146  MZ                Harvest Yield    3863. kg/ha
 

*DSSAT Cropping System Model Ver. 4.7.5.008 -release  JAN 15, 2021 21:49:57
!---------------------------------------------------------------------------------------------
@RUN Date........  DOY    DAS    DAP  CR  Stage         Operation       Quantities
!---------------------------------------------------------------------------------------------
  23 JUN 14, 2013  165      1      0  MZ  14 Start Sim 
  23 JUN 15, 2013  166      2      0  MZ                Planting       
  23 JUN 15, 2013  166      2      0  MZ  07 Sowing    
  23 JUN 15, 2013  166      2      0  MZ                Fertilizer         30. kg[N]/ha 
  23 JUN 16, 2013  167      3      1  MZ  08 Germinate 
  23 JUN 21, 2013  172      8      6  MZ  09 Emergence 
  23 JUL  9, 2013  190     26     24  MZ  01 End Juveni
  23 JUL 14, 2013  195     31     29  MZ  02 Floral Ini
  23 JUL 30, 2013  211     47     45  MZ                Fertilizer         30. kg[N]/ha 
  23 AUG 31, 2013  243     79     77  MZ  03 75% Silkin
  23 SEP 15, 2013  258     94     92  MZ  04 Beg Gr Fil
  23 OCT 31, 2013  304    140    138  MZ  05 End Gr Fil
  23 NOV  1, 2013  305    141    139  MZ  16 Harvest   
  23 NOV  1, 2013  305    141    139  MZ                Harvest Yield    3477. kg/ha
 

*DSSAT Cropping System Model Ver. 4.7.5.008 -release  JAN 15, 2021 21:49:57
!---------------------------------------------------------------------------------------------
@RUN Date........  DOY    DAS    DAP  CR  Stage         Operation       Quantities
!---------------------------------------------------------------------------------------------
  24 JUN 14, 2014  165      1      0  MZ  14 Start Sim 
  24 JUN 15, 2014  166      2      0  MZ                Planting       
  24 JUN 15, 2014  166      2      0  MZ  07 Sowing    
  24 JUN 15, 2014  166      2      0  MZ                Fertilizer         30. kg[N]/ha 
  24 JUN 16, 2014  167      3      1  MZ  08 Germinate 
  24 JUN 21, 2014  172      8      6  MZ  09 Emergence 
  24 JUL  8, 2014  189     25     23  MZ  01 End Juveni
  24 JUL 13, 2014  194     30     28  MZ  02 Floral Ini
  24 JUL 30, 2014  211     47     45  MZ                Fertilizer         30. kg[N]/ha 
  24 AUG 29, 2014  241     77     75  MZ  03 75% Silkin
  24 SEP 14, 2014  257     93     91  MZ  04 Beg Gr Fil
  24 NOV 12, 2014  316    152    150  MZ  05 End Gr Fil
  24 NOV 13, 2014  317    153    151  MZ  16 Harvest   
  24 NOV 13, 2014  317    153    151  MZ                Harvest Yield    4708. kg/ha
 

*DSSAT Cropping System Model Ver. 4.7.5.008 -release  JAN 15, 2021 21:49:57
!---------------------------------------------------------------------------------------------
@RUN Date........  DOY    DAS    DAP  CR  Stage         Operation       Quantities
!---------------------------------------------------------------------------------------------
  25 JUN 14, 2015  165      1      0  MZ  14 Start Sim 
  25 JUN 15, 2015  166      2      0  MZ                Planting       
  25 JUN 15, 2015  166      2      0  MZ  07 Sowing    
  25 JUN 15, 2015  166      2      0  MZ                Fertilizer         30. kg[N]/ha 
  25 JUN 16, 2015  167      3      1  MZ  08 Germinate 
  25 JUN 21, 2015  172      8      6  MZ  09 Emergence 
  25 JUL  7, 2015  188     24     22  MZ  01 End Juveni
  25 JUL 12, 2015  193     29     27  MZ  02 Floral Ini
  25 JUL 30, 2015  211     47     45  MZ                Fertilizer         30. kg[N]/ha 
  25 AUG 25, 2015  237     73     71  MZ  03 75% Silkin
  25 SEP  9, 2015  252     88     86  MZ  04 Beg Gr Fil
  25 OCT 27, 2015  300    136    134  MZ  05 End Gr Fil
  25 OCT 28, 2015  301    137    135  MZ  16 Harvest   
  25 OCT 28, 2015  301    137    135  MZ                Harvest Yield    3122. kg/ha
 

*DSSAT Cropping System Model Ver. 4.7.5.008 -release  JAN 15, 2021 21:49:57
!---------------------------------------------------------------------------------------------
@RUN Date........  DOY    DAS    DAP  CR  Stage         Operation       Quantities
!---------------------------------------------------------------------------------------------
  26 JUN 13, 2016  165      1      0  MZ  14 Start Sim 
  26 JUN 14, 2016  166      2      0  MZ                Planting       
  26 JUN 14, 2016  166      2      0  MZ  07 Sowing    
  26 JUN 14, 2016  166      2      0  MZ                Fertilizer         30. kg[N]/ha 
  26 JUN 15, 2016  167      3      1  MZ  08 Germinate 
  26 JUN 20, 2016  172      8      6  MZ  09 Emergence 
  26 JUL  6, 2016  188     24     22  MZ  01 End Juveni
  26 JUL 11, 2016  193     29     27  MZ  02 Floral Ini
  26 JUL 29, 2016  211     47     45  MZ                Fertilizer         30. kg[N]/ha 
  26 AUG 24, 2016  237     73     71  MZ  03 75% Silkin
  26 SEP  7, 2016  251     87     85  MZ  04 Beg Gr Fil
  26 OCT 21, 2016  295    131    129  MZ  05 End Gr Fil
  26 OCT 22, 2016  296    132    130  MZ  16 Harvest   
  26 OCT 22, 2016  296    132    130  MZ                Harvest Yield    2559. kg/ha
 

*DSSAT Cropping System Model Ver. 4.7.5.008 -release  JAN 15, 2021 21:49:57
!---------------------------------------------------------------------------------------------
@RUN Date........  DOY    DAS    DAP  CR  Stage         Operation       Quantities
!---------------------------------------------------------------------------------------------
  27 JUN 14, 2017  165      1      0  MZ  14 Start Sim 
  27 JUN 15, 2017  166      2      0  MZ                Planting       
  27 JUN 15, 2017  166      2      0  MZ  07 Sowing    
  27 JUN 15, 2017  166      2      0  MZ                Fertilizer         30. kg[N]/ha 
  27 JUN 16, 2017  167      3      1  MZ  08 Germinate 
  27 JUN 21, 2017  172      8      6  MZ  09 Emergence 
  27 JUL  7, 2017  188     24     22  MZ  01 End Juveni
  27 JUL 12, 2017  193     29     27  MZ  02 Floral Ini
  27 JUL 30, 2017  211     47     45  MZ                Fertilizer         30. kg[N]/ha 
  27 AUG 25, 2017  237     73     71  MZ  03 75% Silkin
  27 SEP  9, 2017  252     88     86  MZ  04 Beg Gr Fil
  27 NOV  4, 2017  308    144    142  MZ  05 End Gr Fil
  27 NOV  5, 2017  309    145    143  MZ  16 Harvest   
  27 NOV  5, 2017  309    145    143  MZ                Harvest Yield    4128. kg/ha
 

*DSSAT Cropping System Model Ver. 4.7.5.008 -release  JAN 15, 2021 21:49:57
!---------------------------------------------------------------------------------------------
@RUN Date........  DOY    DAS    DAP  CR  Stage         Operation       Quantities
!---------------------------------------------------------------------------------------------
  28 JUN 14, 2018  165      1      0  MZ  14 Start Sim 
  28 JUN 15, 2018  166      2      0  MZ                Planting       
  28 JUN 15, 2018  166      2      0  MZ  07 Sowing    
  28 JUN 15, 2018  166      2      0  MZ                Fertilizer         30. kg[N]/ha 
  28 JUN 16, 2018  167      3      1  MZ  08 Germinate 
  28 JUN 21, 2018  172      8      6  MZ  09 Emergence 
  28 JUL  8, 2018  189     25     23  MZ  01 End Juveni
  28 JUL 13, 2018  194     30     28  MZ  02 Floral Ini
  28 JUL 30, 2018  211     47     45  MZ                Fertilizer         30. kg[N]/ha 
  28 AUG 27, 2018  239     75     73  MZ  03 75% Silkin
  28 SEP 12, 2018  255     91     89  MZ  04 Beg Gr Fil
  28 OCT 24, 2018  297    133    131  MZ  05 End Gr Fil
  28 OCT 25, 2018  298    134    132  MZ  16 Harvest   
  28 OCT 25, 2018  298    134    132  MZ                Harvest Yield    3103. kg/ha
 
