*N2O emissions output file

*DSSAT Cropping System Model Ver. 4.7.5.008 -release  JAN 15, 2021 21:49:57

*RUN   1        : ERiMA DCC1                MZCER047 ETMZpolo    1
 MODEL          : MZCER047 - Maize
 EXPERIMENT     : ETMZpolo SN MELKSSAL
 DATA PATH      : C:\Users\kpodo\Documents\GitHub\ET_DSS_hist_Eunjin\TEST\
 TREATMENT  1   : ERiMA DCC1                MZCER047
  
!              |---------------------------------- Cumulative ---------------------------------|---------------------------------- Daily --------------------------------------|
!               N2Oemit  N2emit  NOemit     CO2   Denit  Nitrif   N2O-denit+nit      N2      NO N2Oemit  N2emit  NOemit     CO2   Denit  Nitrif   N2O-denit+nit      N2      NO   Denitrification (g[N]/ha) by soil depth (cm):                                   Nitrification (g[N]/ha) by soil depth (cm):                                     N2O flux (g[N]/ha) by soil depth (cm):                                          N2 flux (g[N]/ha) by soil depth (cm):                                           NO flux (g[N]/ha) by soil depth (cm):
!                 kg/ha   kg/ha   kg/ha   kg/ha   kg/ha   kg/ha   kg/ha   kg/ha   kg/ha   kg/ha    g/ha    g/ha    g/ha    g/ha    g/ha    g/ha    g/ha    g/ha    g/ha    g/ha     0-5    5-15   15-20   20-35   35-50   50-65   65-81   81-97  97-118 118-200     0-5    5-15   15-20   20-35   35-50   50-65   65-81   81-97  97-118 118-200     0-5    5-15   15-20   20-35   35-50   50-65   65-81   81-97  97-118 118-200     0-5    5-15   15-20   20-35   35-50   50-65   65-81   81-97  97-118 118-200     0-5    5-15   15-20   20-35   35-50   50-65   65-81   81-97  97-118 118-200
@YEAR DOY   DAS   N2OEC    N2EC    NOEC   CO2TC    NDNC    NITC   N2ODC   N2ONC   N2FLC   NOFLC   N2OED    N2ED    NOED   CO2TD    NDND   NITRD   N2ODD   N2OND   N2FLD   NOFLD   NDN1D   NDN2D   NDN3D   NDN4D   NDN5D   NDN6D   NDN7D   NDN8D   NDN9D   NDN10   NIT1D   NIT2D   NIT3D   NIT4D   NIT5D   NIT6D   NIT7D   NIT8D   NIT9D   NIT10   N2O1D   N2O2D   N2O3D   N2O4D   N2O5D   N2O6D   N2O7D   N2O8D   N2O9D   N2O10   N2F1D   N2F2D   N2F3D   N2F4D   N2F5D   N2F6D   N2F7D   N2F8D   N2F9D   N2F10   NOF1D   NOF2D   NOF3D   NOF4D   NOF5D   NOF6D   NOF7D   NOF8D   NOF9D   NOF10
 1991 165     1    0.00    0.00    0.00      15    0.00     1.2   0.000   0.001   0.000   0.004     0.0     0.0     0.0   14508     0.0    1173    0.00    1.17    0.00    3.50     0.0     0.0     0.0     0.0     0.0     0.0     0.0     0.0     0.0     0.0     34.     67.     33.     97.     86.     84.     80.     78.    128.    130.     0.0     0.1     0.0     0.1     0.1     0.1     0.1     0.1     0.1     0.1     0.0     0.0     0.0     0.0     0.0     0.0     0.0     0.0     0.0     0.0     0.2     0.3     0.2     0.4     0.3     0.3     0.5     0.5     0.2     0.2
 1991 166     2    0.00    0.00    0.00      29    0.00     2.3   0.000   0.002   0.000   0.007     0.0     0.0     0.1   14875     0.0    1148    0.00    1.15    0.00    3.66     0.0     0.0     0.0     0.0     0.0     0.0     0.0     0.0     0.0     0.0     44.     87.     43.    110.     93.     91.     77.     76.    110.    113.     0.0     0.1     0.0     0.1     0.1     0.1     0.1     0.1     0.1     0.1     0.0     0.0     0.0     0.0     0.0     0.0     0.0     0.0     0.0     0.0     0.2     0.4     0.2     0.5     0.4     0.3     0.5     0.5     0.2     0.2
 1991 167     3    0.00    0.00    0.01      45    0.00    13.4   0.000   0.013   0.000   0.059     2.0     0.0     9.8   15251     0.0   11078    0.00   11.08    0.00   51.86     0.0     0.0     0.0     0.0     0.0     0.0     0.0     0.0     0.0     0.0   9987.     99.     49.    118.     98.     96.     77.     75.    102.    104.    10.0     0.1     0.0     0.1     0.1     0.1     0.1     0.1     0.1     0.1     0.0     0.0     0.0     0.0     0.0     0.0     0.0     0.0     0.0     0.0    48.3     0.5     0.2     0.5     0.4     0.4     0.5     0.4     0.2     0.2
 1991 168     4    0.01    0.00    0.03      60    0.00    22.9   0.000   0.023   0.000   0.104     3.3     0.0    16.3   15591     0.0    9524    0.00    9.52    0.00   45.36     0.0     0.0     0.0     0.0     0.0     0.0     0.0     0.0     0.0     0.0   8435.    105.     52.    123.    101.     99.     77.     75.     97.    100.     8.4     0.1     0.1     0.1     0.1     0.1     0.1     0.1     0.1     0.1     0.0     0.0     0.0     0.0     0.0     0.0     0.0     0.0     0.0     0.0    41.8     0.5     0.2     0.6     0.4     0.4     0.5     0.5     0.2     0.2
 1991 169     5    0.01    0.00    0.05      76    0.00    29.3   0.000   0.029   0.000   0.135     3.8     0.0    18.8   16033     0.0    6408    0.00    6.41    0.00   30.67     0.0     0.0     0.0     0.0     0.0     0.0     0.0     0.0     0.0     0.0   5299.    111.     55.    129.    105.    103.     79.     77.     97.     99.     5.3     0.1     0.1     0.1     0.1     0.1     0.1     0.1     0.1     0.1     0.0     0.0     0.0     0.0     0.0     0.0     0.0     0.0     0.0     0.0    27.0     0.5     0.3     0.6     0.4     0.4     0.5     0.5     0.2     0.2
 1991 170     6    0.01    0.00    0.06      93    0.00    33.4   0.000   0.033   0.000   0.154     3.7     0.0    18.5   16549     0.0    4089    0.00    4.09    0.00   19.28     0.0     0.0     0.0     0.0     0.0     0.0     0.0     0.0     0.0     0.0   2948.    117.     58.    135.    110.    107.     81.     80.     99.    101.     2.9     0.1     0.1     0.1     0.1     0.1     0.1     0.1     0.1     0.1     0.0     0.0     0.0     0.0     0.0     0.0     0.0     0.0     0.0     0.0    15.4     0.6     0.3     0.6     0.4     0.4     0.5     0.5     0.2     0.2
 1991 171     7    0.02    0.00    0.08     109    0.00    35.9   0.000   0.036   0.000   0.166     3.3     0.0    16.6   16424     0.0    2518    0.00    2.52    0.00   11.34     0.0     0.0     0.0     0.0     0.0     0.0     0.0     0.0     0.0     0.0   1416.    112.     55.    130.    106.    104.     79.     77.     95.     97.     1.4     0.1     0.1     0.1     0.1     0.1     0.1     0.1     0.1     0.1     0.0     0.0     0.0     0.0     0.0     0.0     0.0     0.0     0.0     0.0     7.6     0.5     0.3     0.6     0.4     0.4     0.5     0.5     0.2     0.2
 1991 172     8    0.02    0.00    0.09     125    0.00    37.7   0.000   0.038   0.000   0.173     2.8     0.0    14.3   15884     0.0    1726    0.00    1.73    0.00    7.29     0.0     0.0     0.0     0.0     0.0     0.0     0.0     0.0     0.0     0.0    688.    104.     52.    121.     99.     97.     74.     73.     90.     92.     0.7     0.1     0.1     0.1     0.1     0.1     0.1     0.1     0.1     0.1     0.0     0.0     0.0     0.0     0.0     0.0     0.0     0.0     0.0     0.0     3.8     0.5     0.2     0.6     0.4     0.4     0.4     0.4     0.1     0.2
 1991 173     9    0.02    0.00    0.11     141    0.00    39.1   0.000   0.039   0.000   0.179     2.4     0.0    12.1   15613     0.0    1451    0.00    1.45    0.00    5.87     0.0     0.0     0.0     0.0     0.0     0.0     0.0     0.0     0.0     0.0    431.    103.     51.    119.     98.     96.     73.     72.     89.     91.     0.4     0.1     0.1     0.1     0.1     0.1     0.1     0.1     0.1     0.1     0.0     0.0     0.0     0.0     0.0     0.0     0.0     0.0     0.0     0.0     2.4     0.5     0.2     0.5     0.4     0.4     0.4     0.4     0.1     0.1
 1991 174    10    0.02    0.00    0.12     156    0.00    40.4   0.000   0.040   0.000   0.184     2.0     0.0    10.2   15223     0.0    1281    0.00    1.28    0.00    5.01     0.0     0.0     0.0     0.0     0.0     0.0     0.0     0.0     0.0     0.0    290.     99.     49.    115.     94.     93.     71.     70.     86.     88.     0.3     0.1     0.0     0.1     0.1     0.1     0.1     0.1     0.1     0.1     0.0     0.0     0.0     0.0     0.0     0.0     0.0     0.0     0.0     0.0     1.7     0.5     0.2     0.5     0.4     0.4     0.4     0.4     0.1     0.1
 1991 175    11    0.03    0.00    0.13     171    0.00    41.6   0.000   0.042   0.000   0.188     1.7     0.0     8.6   14949     0.0    1187    0.00    1.19    0.00    4.52     0.0     0.0     0.0     0.0     0.0     0.0     0.0     0.0     0.0     0.0    213.     97.     48.    113.     93.     91.     70.     69.     85.     87.     0.2     0.1     0.0     0.1     0.1     0.1     0.1     0.1     0.1     0.1     0.0     0.0     0.0     0.0     0.0     0.0     0.0     0.0     0.0     0.0     1.3     0.5     0.2     0.5     0.4     0.3     0.4     0.4     0.1     0.1
 1991 176    12    0.03    0.00    0.13     186    0.00    42.7   0.000   0.043   0.000   0.193     1.4     0.0     7.3   14902     0.0    1147    0.00    1.15    0.00    4.29     0.0     0.0     0.0     0.0     0.0     0.0     0.0     0.0     0.0     0.0    167.     98.     48.    114.     93.     92.     70.     69.     85.     87.     0.2     0.1     0.0     0.1     0.1     0.1     0.1     0.1     0.1     0.1     0.0     0.0     0.0     0.0     0.0     0.0     0.0     0.0     0.0     0.0     1.0     0.5     0.2     0.5     0.4     0.3     0.4     0.4     0.1     0.1
 1991 177    13    0.03    0.00    0.14     201    0.00    43.9   0.000   0.044   0.000   0.197     1.2     0.0     6.2   15450     0.0    1186    0.00    1.19    0.00    4.40     0.0     0.0     0.0     0.0     0.0     0.0     0.0     0.0     0.0     0.0    146.    106.     52.    122.    100.     98.     74.     73.     90.     92.     0.1     0.1     0.1     0.1     0.1     0.1     0.1     0.1     0.1     0.1     0.0     0.0     0.0     0.0     0.0     0.0     0.0     0.0     0.0     0.0     0.9     0.5     0.2     0.6     0.4     0.4     0.4     0.4     0.1     0.2
 1991 178    14    0.03    0.00    0.14     216    0.00    45.0   0.000   0.045   0.000   0.201     1.1     0.0     5.3   15050     0.0    1105    0.00    1.10    0.00    4.03     0.0     0.0     0.0     0.0     0.0     0.0     0.0     0.0     0.0     0.0    113.     99.     49.    115.     95.     93.     71.     70.     86.     89.     0.1     0.1     0.0     0.1     0.1     0.1     0.1     0.1     0.1     0.1     0.0     0.0     0.0     0.0     0.0     0.0     0.0     0.0     0.0     0.0     0.7     0.5     0.2     0.5     0.4     0.4     0.4     0.4     0.1     0.1
 1991 179    15    0.03    0.00    0.15     231    0.00    46.1   0.000   0.046   0.000   0.216     0.9     0.0     5.1   15055     0.0    1096    0.00    1.10    0.00   14.89     0.0     0.0     0.0     0.0     0.0     0.0     0.0     0.0     0.0     0.0    100.    100.     49.    116.     95.     93.     71.     70.     87.     89.     0.1     0.1     0.0     0.1     0.1     0.1     0.1     0.1     0.1     0.1     0.0     0.0     0.0     0.0     0.0     0.0     0.0     0.0     0.0     0.0     2.3     1.8     0.9     2.0     1.3     1.3     1.6     1.6     0.5     0.5
 1991 180    16    0.03    0.00    0.15     246    0.00    47.3   0.000   0.047   0.000   0.228     0.7     0.0     4.2   14577     0.0    1143    0.00    1.14    0.00   12.33     0.0     0.0     0.0     0.0     0.0     0.0     0.0     0.0     0.0     0.0    155.     99.     49.    115.     94.     93.     71.     69.     86.     88.     0.2     0.1     0.0     0.1     0.1     0.1     0.1     0.1     0.1     0.1     0.0     0.0     0.0     0.0     0.0     0.0     0.0     0.0     0.0     0.0     2.2     1.4     0.7     1.6     1.1     1.1     1.3     1.3     0.4     0.4
 1991 181    17    0.03    0.00    0.16     260    0.00    48.4   0.000   0.048   0.000   0.238     0.7     0.0     4.2   14134     0.0    1098    0.00    1.10    0.00    9.60     0.0     0.0     0.0     0.0     0.0     0.0     0.0     0.0     0.0     0.0    169.     78.     42.    109.     90.     89.     68.     67.     83.     85.     0.2     0.1     0.0     0.1     0.1     0.1     0.1     0.1     0.1     0.1     0.0     0.0     0.0     0.0     0.0     0.0     0.0     0.0     0.0     0.0     2.0     0.9     0.5     1.2     0.8     0.8     1.0     1.0     0.3     0.3
 1991 182    18    0.03    0.00    0.16     274    0.00    49.3   0.000   0.049   0.000   0.244     0.4     0.0     2.7   13805     0.0     984    0.00    0.98    0.00    6.10     0.0     0.0     0.0     0.0     0.0     0.0     0.0     0.0     0.0     0.0    109.     67.     38.    103.     85.     84.     64.     64.     79.     82.     0.1     0.1     0.0     0.1     0.1     0.1     0.1     0.1     0.1     0.1     0.0     0.0     0.0     0.0     0.0     0.0     0.0     0.0     0.0     0.0     0.3     0.6     0.4     0.9     0.6     0.6     0.8     0.8     0.3     0.3
 1991 183    19    0.03    0.00    0.16     288    0.00    50.4   0.000   0.050   0.000   0.250     0.7     0.0     4.0   13874     0.0    1029    0.00    1.03    0.00    5.83     0.0     0.0     0.0     0.0     0.0     0.0     0.0     0.0     0.0     0.0    106.     89.     38.    107.     88.     87.     67.     66.     82.     84.     0.1     0.1     0.0     0.1     0.1     0.1     0.1     0.1     0.1     0.1     0.0     0.0     0.0     0.0     0.0     0.0     0.0     0.0     0.0     0.0     0.8     0.7     0.3     0.8     0.5     0.5     0.7     0.6     0.2     0.2
 1991 184    20    0.03    0.00    0.17     301    0.00    51.4   0.000   0.051   0.000   0.254     0.6     0.0     3.8   13743     0.0     992    0.00    0.99    0.00    4.51     0.0     0.0     0.0     0.0     0.0     0.0     0.0     0.0     0.0     0.0     78.     93.     35.    101.     88.     87.     66.     65.     81.     84.     0.1     0.1     0.0     0.1     0.1     0.1     0.1     0.1     0.1     0.1     0.0     0.0     0.0     0.0     0.0     0.0     0.0     0.0     0.0     0.0     0.5     0.6     0.2     0.6     0.4     0.4     0.5     0.5     0.2     0.2
 1991 185    21    0.03    0.00    0.17     315    0.00    52.3   0.000   0.052   0.000   0.258     0.4     0.0     2.2   13648     0.0     947    0.00    0.95    0.00    3.26     0.0     0.0     0.0     0.0     0.0     0.0     0.0     0.0     0.0     0.0     50.     90.     34.     96.     86.     85.     65.     65.     80.     83.     0.1     0.1     0.0     0.1     0.1     0.1     0.1     0.1     0.1     0.1     0.0     0.0     0.0     0.0     0.0     0.0     0.0     0.0     0.0     0.0     0.1     0.5     0.2     0.5     0.4     0.3     0.4     0.4     0.1     0.1
 1991 186    22    0.03    0.00    0.17     329    0.00    53.2   0.000   0.053   0.000   0.260     0.3     0.0     1.7   13867     0.0     914    0.00    0.91    0.00    2.51     0.0     0.0     0.0     0.0     0.0     0.0     0.0     0.0     0.0     0.0     44.     72.     28.     94.     86.     85.     65.     64.     80.     83.     0.0     0.1     0.0     0.1     0.1     0.1     0.1     0.1     0.1     0.1     0.0     0.0     0.0     0.0     0.0     0.0     0.0     0.0     0.0     0.0     0.0     0.1     0.0     0.4     0.3     0.3     0.4     0.4     0.1     0.1
 1991 187    23    0.03    0.00    0.18     343    0.00    54.2   0.000   0.054   0.000   0.263     0.6     0.0     3.4   13948     0.0     991    0.00    0.99    0.00    3.13     0.0     0.0     0.0     0.0     0.0     0.0     0.0     0.0     0.0     0.0     63.    101.     44.    101.     87.     86.     66.     65.     81.     83.     0.1     0.1     0.0     0.1     0.1     0.1     0.1     0.1     0.1     0.1     0.0     0.0     0.0     0.0     0.0     0.0     0.0     0.0     0.0     0.0     0.2     0.3     0.1     0.5     0.3     0.3     0.4     0.4     0.1     0.1
 1991 188    24    0.03    0.00    0.18     357    0.00    55.2   0.000   0.055   0.000   0.267     0.6     0.0     3.6   13946     0.0     983    0.00    0.98    0.00    3.35     0.0     0.0     0.0     0.0     0.0     0.0     0.0     0.0     0.0     0.0     54.     97.     46.    104.     87.     86.     66.     65.     81.     83.     0.1     0.1     0.0     0.1     0.1     0.1     0.1     0.1     0.1     0.1     0.0     0.0     0.0     0.0     0.0     0.0     0.0     0.0     0.0     0.0     0.3     0.5     0.2     0.5     0.3     0.3     0.4     0.4     0.1     0.1
 1991 189    25    0.04    0.00    0.18     371    0.00    56.2   0.000   0.056   0.000   0.270     0.6     0.0     3.5   14033     0.0     986    0.00    0.99    0.00    3.36     0.0     0.0     0.0     0.0     0.0     0.0     0.0     0.0     0.0     0.0     50.     95.     46.    106.     88.     87.     67.     66.     82.     84.     0.1     0.1     0.0     0.1     0.1     0.1     0.1     0.1     0.1     0.1     0.0     0.0     0.0     0.0     0.0     0.0     0.0     0.0     0.0     0.0     0.2     0.4     0.2     0.5     0.3     0.3     0.4     0.4     0.1     0.1
 1991 190    26    0.04    0.00    0.19     385    0.00    57.1   0.000   0.057   0.000   0.273     0.6     0.0     3.5   13804     0.0     965    0.00    0.96    0.00    3.28     0.0     0.0     0.0     0.0     0.0     0.0     0.0     0.0     0.0     0.0     47.     91.     45.    104.     86.     85.     65.     65.     80.     83.     0.0     0.1     0.0     0.1     0.1     0.1     0.1     0.1     0.1     0.1     0.0     0.0     0.0     0.0     0.0     0.0     0.0     0.0     0.0     0.0     0.2     0.4     0.2     0.5     0.3     0.3     0.4     0.4     0.1     0.1
 1991 191    27    0.04    0.00    0.19     399    0.00    58.1   0.000   0.058   0.000   0.276     0.2     0.0     1.4   14070     0.0     925    0.00    0.93    0.00    2.46     0.0     0.0     0.0     0.0     0.0     0.0     0.0     0.0     0.0     0.0     29.     76.     35.    107.     75.     88.     67.     66.     82.     84.     0.0     0.1     0.0     0.1     0.1     0.1     0.1     0.1     0.1     0.1     0.0     0.0     0.0     0.0     0.0     0.0     0.0     0.0     0.0     0.0     0.0     0.1     0.0     0.4     0.3     0.3     0.4     0.4     0.1     0.1
 1991 192    28    0.04    0.00    0.19     413    0.00    59.1   0.000   0.059   0.000   0.279     0.6     0.0     3.2   14000     0.0    1002    0.00    1.00    0.00    3.25     0.0     0.0     0.0     0.0     0.0     0.0     0.0     0.0     0.0     0.0     53.    100.     50.    107.     94.     87.     66.     65.     81.     84.     0.1     0.1     0.1     0.1     0.1     0.1     0.1     0.1     0.1     0.1     0.0     0.0     0.0     0.0     0.0     0.0     0.0     0.0     0.0     0.0     0.2     0.4     0.2     0.5     0.4     0.3     0.4     0.4     0.1     0.1
 1991 193    29    0.04    0.00    0.19     427    0.00    60.0   0.000   0.060   0.000   0.281     0.3     0.0     1.4   13842     0.0     888    0.00    0.89    0.00    2.19     0.0     0.0     0.0     0.0     0.0     0.0     0.0     0.0     0.0     0.0     32.     76.     34.    102.     74.     72.     62.     62.     80.     83.     0.0     0.1     0.0     0.1     0.1     0.1     0.1     0.1     0.1     0.1     0.0     0.0     0.0     0.0     0.0     0.0     0.0     0.0     0.0     0.0     0.0     0.1     0.0     0.3     0.2     0.2     0.4     0.4     0.1     0.1
 1991 194    30    0.04    0.00    0.20     440    0.00    60.9   0.000   0.061   0.000   0.284     0.6     0.0     3.3   13610     0.0     958    0.00    0.96    0.00    3.08     0.0     0.0     0.0     0.0     0.0     0.0     0.0     0.0     0.0     0.0     53.     97.     50.    103.     79.     76.     65.     64.     79.     81.     0.1     0.1     0.0     0.1     0.1     0.1     0.1     0.1     0.1     0.1     0.0     0.0     0.0     0.0     0.0     0.0     0.0     0.0     0.0     0.0     0.2     0.4     0.1     0.5     0.3     0.3     0.4     0.4     0.1     0.1
 1991 195    31    0.04    0.00    0.20     454    0.11    61.8   0.031   0.062   0.074   0.318     1.0     2.1     2.1   13662   105.7     901   31.38    0.90   74.36   33.32    23.7    43.6    38.5     0.0     0.0     0.0     0.0     0.0     0.0     0.0     34.     77.     35.    102.     79.     78.     62.     62.     79.     82.     5.3    13.0    13.2     0.1     0.1     0.1     0.1     0.1     0.1     0.1    18.4    30.6    25.4     0.0     0.0     0.0     0.0     0.0     0.0     0.0     3.9    16.4    10.9     0.3     0.2     0.3     0.4     0.4     0.1     0.1
 1991 196    32    0.04    0.01    0.20     467    0.12    62.8   0.035   0.063   0.084   0.333     2.5     5.4     5.5   13364    12.9     932    3.55    0.93    9.38   15.33     2.6     3.5     6.8     0.0     0.0     0.0     0.0     0.0     0.0     0.0     50.     87.     44.    101.     81.     80.     62.     64.     77.     80.     0.7     1.0     2.1     0.1     0.1     0.1     0.1     0.1     0.1     0.1     2.0     2.6     4.8     0.0     0.0     0.0     0.0     0.0     0.0     0.0     2.5     4.3     6.3     0.5     0.3     0.3     0.4     0.4     0.1     0.1
 1991 197    33    0.04    0.01    0.21     481    0.12    63.7   0.035   0.064   0.084   0.336     2.9     6.0     6.3   13284     0.0     949    0.00    0.95    0.00    3.23     0.0     0.0     0.0     0.0     0.0     0.0     0.0     0.0     0.0     0.0     45.     84.     41.    100.     96.     94.     65.     63.     77.     80.     0.0     0.1     0.0     0.1     0.1     0.1     0.1     0.1     0.1     0.1     0.0     0.0     0.0     0.0     0.0     0.0     0.0     0.0     0.0     0.0     0.2     0.4     0.2     0.4     0.4     0.4     0.4     0.4     0.1     0.1
 1991 198    34    0.05    0.02    0.22     494    0.12    64.6   0.035   0.065   0.084   0.339     3.0     6.1     6.5   13117     0.0     923    0.00    0.92    0.00    3.13     0.0     0.0     0.0     0.0     0.0     0.0     0.0     0.0     0.0     0.0     43.     83.     41.     98.     88.     87.     63.     62.     76.     79.     0.0     0.1     0.0     0.1     0.1     0.1     0.1     0.1     0.1     0.1     0.0     0.0     0.0     0.0     0.0     0.0     0.0     0.0     0.0     0.0     0.2     0.4     0.2     0.4     0.3     0.3     0.4     0.4     0.1     0.1
 1991 199    35    0.05    0.03    0.22     506    0.12    65.5   0.035   0.066   0.084   0.342     3.1     6.0     6.6   12719     0.0     894    0.00    0.89    0.00    3.02     0.0     0.0     0.0     0.0     0.0     0.0     0.0     0.0     0.0     0.0     41.     80.     40.     95.     83.     82.     61.     60.     75.     78.     0.0     0.1     0.0     0.1     0.1     0.1     0.1     0.1     0.1     0.1     0.0     0.0     0.0     0.0     0.0     0.0     0.0     0.0     0.0     0.0     0.2     0.4     0.2     0.4     0.3     0.3     0.4     0.4     0.1     0.1
 1991 200    36    0.05    0.03    0.22     519    0.12    66.4   0.035   0.066   0.084   0.345     1.1     2.2     2.4   12657     0.0     832    0.00    0.83    0.00    2.36     0.0     0.0     0.0     0.0     0.0     0.0     0.0     0.0     0.0     0.0     23.     67.     35.     93.     68.     79.     60.     59.     74.     76.     0.0     0.1     0.0     0.1     0.1     0.1     0.1     0.1     0.1     0.1     0.0     0.0     0.0     0.0     0.0     0.0     0.0     0.0     0.0     0.0     0.0     0.1     0.1     0.4     0.2     0.3     0.4     0.4     0.1     0.1
 1991 201    37    0.05    0.03    0.23     532    0.12    67.3   0.035   0.067   0.084   0.348     2.8     5.2     6.1   12795     0.0     902    0.00    0.90    0.00    2.99     0.0     0.0     0.0     0.0     0.0     0.0     0.0     0.0     0.0     0.0     45.     82.     42.     95.     85.     79.     60.     60.     75.     78.     0.0     0.1     0.0     0.1     0.1     0.1     0.1     0.1     0.1     0.1     0.0     0.0     0.0     0.0     0.0     0.0     0.0     0.0     0.0     0.0     0.1     0.4     0.2     0.4     0.3     0.3     0.4     0.4     0.1     0.1
 1991 202    38    0.06    0.04    0.24     545    0.12    68.2   0.035   0.068   0.084   0.351     3.1     5.6     6.8   12869     0.0     904    0.00    0.90    0.00    3.05     0.0     0.0     0.0     0.0     0.0     0.0     0.0     0.0     0.0     0.0     44.     82.     41.     96.     83.     80.     61.     60.     75.     78.     0.0     0.1     0.0     0.1     0.1     0.1     0.1     0.1     0.1     0.1     0.0     0.0     0.0     0.0     0.0     0.0     0.0     0.0     0.0     0.0     0.2     0.4     0.2     0.4     0.3     0.3     0.4     0.4     0.1     0.1
 1991 203    39    0.06    0.04    0.24     558    0.12    69.1   0.035   0.069   0.084   0.354     3.0     5.2     6.6   13062     0.0     919    0.00    0.92    0.00    3.11     0.0     0.0     0.0     0.0     0.0     0.0     0.0     0.0     0.0     0.0     44.     85.     42.     98.     84.     81.     62.     62.     77.     80.     0.0     0.1     0.0     0.1     0.1     0.1     0.1     0.1     0.1     0.1     0.0     0.0     0.0     0.0     0.0     0.0     0.0     0.0     0.0     0.0     0.2     0.4     0.2     0.4     0.3     0.3     0.4     0.4     0.1     0.1
 1991 204    40    0.06    0.05    0.25     571    0.12    70.0   0.035   0.070   0.084   0.357     2.9     4.8     6.4   13035     0.0     932    0.00    0.93    0.00    3.16     0.0     0.0     0.0     0.0     0.0     0.0     0.0     0.0     0.0     0.0     44.     86.     43.    100.     84.     82.     63.     63.     78.     81.     0.0     0.1     0.0     0.1     0.1     0.1     0.1     0.1     0.1     0.1     0.0     0.0     0.0     0.0     0.0     0.0     0.0     0.0     0.0     0.0     0.2     0.4     0.2     0.5     0.3     0.3     0.4     0.4     0.1     0.1
 1991 205    41    0.07    0.05    0.26     584    0.12    70.9   0.035   0.071   0.084   0.360     2.7     4.4     6.2   12954     0.0     934    0.00    0.93    0.00    3.17     0.0     0.0     0.0     0.0     0.0     0.0     0.0     0.0     0.0     0.0     41.     84.     41.    102.     85.     84.     64.     63.     79.     82.     0.0     0.1     0.0     0.1     0.1     0.1     0.1     0.1     0.1     0.1     0.0     0.0     0.0     0.0     0.0     0.0     0.0     0.0     0.0     0.0     0.2     0.4     0.2     0.5     0.3     0.3     0.4     0.4     0.1     0.1
 1991 206    42    0.07    0.06    0.26     597    0.12    71.9   0.035   0.072   0.084   0.363     2.6     4.0     6.0   12942     0.0     936    0.00    0.94    0.00    3.17     0.0     0.0     0.0     0.0     0.0     0.0     0.0     0.0     0.0     0.0     38.     77.     38.    104.     87.     85.     65.     65.     80.     83.     0.0     0.1     0.0     0.1     0.1     0.1     0.1     0.1     0.1     0.1     0.0     0.0     0.0     0.0     0.0     0.0     0.0     0.0     0.0     0.0     0.2     0.4     0.2     0.5     0.3     0.3     0.4     0.4     0.1     0.1
 1991 207    43    0.07    0.06    0.27     610    0.12    72.8   0.035   0.073   0.084   0.366     2.4     3.6     5.8   12806     0.0     929    0.00    0.93    0.00    3.14     0.0     0.0     0.0     0.0     0.0     0.0     0.0     0.0     0.0     0.0     35.     69.     34.    104.     88.     86.     66.     65.     81.     84.     0.0     0.1     0.0     0.1     0.1     0.1     0.1     0.1     0.1     0.1     0.0     0.0     0.0     0.0     0.0     0.0     0.0     0.0     0.0     0.0     0.2     0.3     0.2     0.5     0.3     0.3     0.4     0.4     0.1     0.1
 1991 208    44    0.07    0.06    0.27     623    0.12    73.7   0.035   0.074   0.084   0.369     1.0     1.4     2.4   13688     0.0     921    0.00    0.92    0.00    2.89     0.0     0.0     0.0     0.0     0.0     0.0     0.0     0.0     0.0     0.0     22.     64.     32.    100.     90.     89.     68.     67.     83.     86.     0.0     0.1     0.0     0.1     0.1     0.1     0.1     0.1     0.1     0.1     0.0     0.0     0.0     0.0     0.0     0.0     0.0     0.0     0.0     0.0     0.0     0.2     0.1     0.5     0.3     0.3     0.4     0.4     0.1     0.1
 1991 209    45    0.07    0.06    0.27     637    0.12    74.6   0.035   0.075   0.084   0.372     0.9     1.2     2.2   13632     0.0     903    0.00    0.90    0.00    2.57     0.0     0.0     0.0     0.0     0.0     0.0     0.0     0.0     0.0     0.0     28.     68.     34.     85.     87.     86.     66.     66.     82.     84.     0.0     0.1     0.0     0.1     0.1     0.1     0.1     0.1     0.1     0.1     0.0     0.0     0.0     0.0     0.0     0.0     0.0     0.0     0.0     0.0     0.0     0.1     0.1     0.4     0.3     0.3     0.4     0.4     0.1     0.1
 1991 210    46    0.07    0.07    0.28     651    0.12    75.6   0.035   0.076   0.084   0.375     1.9     2.5     4.8   13752     0.0     944    0.00    0.94    0.00    3.08     0.0     0.0     0.0     0.0     0.0     0.0     0.0     0.0     0.0     0.0     50.     88.     43.     83.     86.     85.     65.     65.     81.     83.     0.1     0.1     0.0     0.1     0.1     0.1     0.1     0.1     0.1     0.1     0.0     0.0     0.0     0.0     0.0     0.0     0.0     0.0     0.0     0.0     0.1     0.4     0.2     0.4     0.3     0.3     0.4     0.4     0.1     0.1
 1991 211    47    0.08    0.07    0.28     664    0.12    76.5   0.035   0.077   0.084   0.378     2.1     2.6     5.5   13528     0.0     939    0.00    0.94    0.00    3.17     0.0     0.0     0.0     0.0     0.0     0.0     0.0     0.0     0.0     0.0     49.     88.     43.     90.     85.     84.     64.     64.     79.     82.     0.0     0.1     0.0     0.1     0.1     0.1     0.1     0.1     0.1     0.1     0.0     0.0     0.0     0.0     0.0     0.0     0.0     0.0     0.0     0.0     0.2     0.4     0.2     0.4     0.3     0.3     0.4     0.4     0.1     0.1
 1991 212    48    0.08    0.07    0.29     678    0.12    79.2   0.035   0.079   0.084   0.382     1.0     1.0     2.3   13429     0.0    2692    0.00    2.69    0.00    3.64     0.0     0.0     0.0     0.0     0.0     0.0     0.0     0.0     0.0     0.0   1837.     73.     35.     89.     83.     82.     63.     63.     78.     81.     1.8     0.1     0.0     0.1     0.1     0.1     0.1     0.1     0.1     0.1     0.0     0.0     0.0     0.0     0.0     0.0     0.0     0.0     0.0     0.0     1.2     0.1     0.0     0.4     0.3     0.3     0.4     0.4     0.1     0.1
 1991 213    49    0.08    0.07    0.29     691    0.12    83.3   0.035   0.083   0.084   0.395     2.5     1.9     6.5   13007     0.0    4143    0.00    4.14    0.00   12.95     0.0     0.0     0.0     0.0     0.0     0.0     0.0     0.0     0.0     0.0   3285.     88.     44.     90.     79.     79.     61.     60.     75.     78.     3.3     0.1     0.0     0.1     0.1     0.1     0.1     0.1     0.1     0.1     0.0     0.0     0.0     0.0     0.0     0.0     0.0     0.0     0.0     0.0    10.2     0.4     0.2     0.4     0.3     0.3     0.4     0.4     0.1     0.1
 1991 214    50    0.08    0.07    0.30     704    0.12    85.9   0.035   0.086   0.084   0.399     1.3     0.9     3.2   13252     0.0    2593    0.00    2.59    0.00    4.42     0.0     0.0     0.0     0.0     0.0     0.0     0.0     0.0     0.0     0.0   1430.    370.     41.     97.     82.     81.     63.     62.     78.     80.     1.4     0.4     0.0     0.1     0.1     0.1     0.1     0.1     0.1     0.1     0.0     0.0     0.0     0.0     0.0     0.0     0.0     0.0     0.0     0.0     1.0     1.0     0.1     0.4     0.3     0.3     0.4     0.4     0.1     0.1
 1991 215    51    0.08    0.07    0.30     717    0.12    88.3   0.035   0.088   0.084   0.408     2.8     1.7     7.1   13531     0.0    2314    0.00    2.31    0.00    8.68     0.0     0.0     0.0     0.0     0.0     0.0     0.0     0.0     0.0     0.0    874.    515.    151.    102.     85.     84.     65.     64.     80.     82.     0.9     0.5     0.2     0.1     0.1     0.1     0.1     0.1     0.1     0.1     0.0     0.0     0.0     0.0     0.0     0.0     0.0     0.0     0.0     0.0     3.2     2.4     0.7     0.5     0.3     0.3     0.4     0.4     0.1     0.1
 1991 216    52    0.09    0.08    0.31     731    0.12    89.9   0.035   0.090   0.084   0.414     2.8     1.6     7.5   13473     0.0    1659    0.00    1.66    0.00    6.55     0.0     0.0     0.0     0.0     0.0     0.0     0.0     0.0     0.0     0.0    315.    389.    154.    134.     84.     83.     64.     63.     79.     82.     0.3     0.4     0.2     0.1     0.1     0.1     0.1     0.1     0.1     0.1     0.0     0.0     0.0     0.0     0.0     0.0     0.0     0.0     0.0     0.0     1.5     1.8     0.7     0.6     0.3     0.3     0.4     0.4     0.1     0.1
 1991 217    53    0.09    0.08    0.32     744    0.12    91.4   0.035   0.091   0.084   0.420     2.5     1.4     7.1   13458     0.0    1474    0.00    1.47    0.00    5.68     0.0     0.0     0.0     0.0     0.0     0.0     0.0     0.0     0.0     0.0    190.    326.    142.    139.     86.     85.     65.     64.     80.     83.     0.2     0.3     0.1     0.1     0.1     0.1     0.1     0.1     0.1     0.1     0.0     0.0     0.0     0.0     0.0     0.0     0.0     0.0     0.0     0.0     0.9     1.5     0.7     0.6     0.3     0.3     0.4     0.4     0.1     0.1
 1991 218    54    0.09    0.08    0.32     758    0.12    92.6   0.035   0.093   0.084   0.423     1.0     0.5     2.7   13655     0.0    1235    0.00    1.24    0.00    3.08     0.0     0.0     0.0     0.0     0.0     0.0     0.0     0.0     0.0     0.0    100.    231.     97.    131.     86.     85.     65.     64.     80.     83.     0.1     0.2     0.1     0.1     0.1     0.1     0.1     0.1     0.1     0.1     0.0     0.0     0.0     0.0     0.0     0.0     0.0     0.0     0.0     0.0     0.1     0.3     0.2     0.6     0.3     0.3     0.4     0.4     0.1     0.1
 1991 219    55    0.09    0.08    0.32     772    0.12    93.8   0.035   0.094   0.084   0.426     0.9     0.5     2.7   13686     0.0    1179    0.00    1.18    0.00    2.97     0.0     0.0     0.0     0.0     0.0     0.0     0.0     0.0     0.0     0.0     83.    207.     81.    132.     86.     85.     65.     65.     80.     83.     0.1     0.2     0.1     0.1     0.1     0.1     0.1     0.1     0.1     0.1     0.0     0.0     0.0     0.0     0.0     0.0     0.0     0.0     0.0     0.0     0.1     0.3     0.1     0.6     0.3     0.3     0.4     0.4     0.1     0.1
 1991 220    56    0.09    0.08    0.33     785    0.12    95.0   0.035   0.095   0.084   0.430     1.9     0.9     5.6   13405     0.0    1169    0.00    1.17    0.00    3.95     0.0     0.0     0.0     0.0     0.0     0.0     0.0     0.0     0.0     0.0    101.    185.     96.    127.     83.     82.     63.     63.     78.     81.     0.1     0.2     0.1     0.1     0.1     0.1     0.1     0.1     0.1     0.1     0.0     0.0     0.0     0.0     0.0     0.0     0.0     0.0     0.0     0.0     0.3     0.9     0.3     0.6     0.3     0.3     0.4     0.4     0.1     0.1
 1991 221    57    0.09    0.08    0.33     798    0.12    96.0   0.035   0.096   0.084   0.433     1.0     0.4     2.9   13459     0.0    1063    0.00    1.06    0.00    3.31     0.0     0.0     0.0     0.0     0.0     0.0     0.0     0.0     0.0     0.0     54.    145.     74.    123.     86.     83.     64.     63.     79.     82.     0.1     0.1     0.1     0.1     0.1     0.1     0.1     0.1     0.1     0.1     0.0     0.0     0.0     0.0     0.0     0.0     0.0     0.0     0.0     0.0     0.0     0.6     0.2     0.6     0.3     0.3     0.4     0.4     0.1     0.1
 1991 222    58    0.10    0.08    0.34     812    0.12    97.0   0.035   0.097   0.084   0.437     1.9     0.8     5.7   13137     0.1    1007    0.00    1.01    0.13    3.41     0.1     0.0     0.0     0.0     0.0     0.0     0.0     0.0     0.0     0.0     69.    115.     61.    113.     83.     80.     62.     61.     77.     80.     0.1     0.1     0.1     0.1     0.1     0.1     0.1     0.1     0.1     0.1     0.1     0.0     0.0     0.0     0.0     0.0     0.0     0.0     0.0     0.0     0.2     0.5     0.3     0.5     0.3     0.3     0.4     0.4     0.1     0.1
 1991 223    59    0.10    0.08    0.34     825    0.12    98.0   0.035   0.098   0.085   0.440     0.9     0.4     2.8   13230     0.7     966    0.01    0.97    0.69    3.08     0.7     0.0     0.0     0.0     0.0     0.0     0.0     0.0     0.0     0.0     40.    104.     54.    111.     84.     82.     63.     62.     78.     81.     0.0     0.1     0.1     0.1     0.1     0.1     0.1     0.1     0.1     0.1     0.7     0.0     0.0     0.0     0.0     0.0     0.0     0.0     0.0     0.0     0.0     0.4     0.2     0.5     0.3     0.3     0.4     0.4     0.1     0.1
 1991 224    60    0.10    0.08    0.35     838    0.12    99.0   0.035   0.099   0.085   0.443     1.7     0.7     5.4   13169     0.2     963    0.00    0.96    0.16    3.19     0.2     0.0     0.0     0.0     0.0     0.0     0.0     0.0     0.0     0.0     58.     96.     49.    107.     83.     81.     62.     62.     77.     80.     0.1     0.1     0.0     0.1     0.1     0.1     0.1     0.1     0.1     0.1     0.2     0.0     0.0     0.0     0.0     0.0     0.0     0.0     0.0     0.0     0.2     0.5     0.2     0.5     0.3     0.3     0.4     0.4     0.1     0.1
 1991 225    61    0.10    0.08    0.35     851    0.12    99.9   0.035   0.100   0.085   0.446     1.9     0.7     6.1   13288     0.0     962    0.00    0.96    0.00    3.29     0.0     0.0     0.0     0.0     0.0     0.0     0.0     0.0     0.0     0.0     55.     93.     47.    106.     84.     82.     63.     63.     78.     81.     0.1     0.1     0.0     0.1     0.1     0.1     0.1     0.1     0.1     0.1     0.0     0.0     0.0     0.0     0.0     0.0     0.0     0.0     0.0     0.0     0.3     0.4     0.2     0.5     0.3     0.3     0.4     0.4     0.1     0.1
 1991 226    62    0.10    0.08    0.36     865    0.12   100.9   0.035   0.101   0.085   0.450     1.8     0.6     5.7   13223     0.0     952    0.00    0.95    0.00    3.24     0.0     0.0     0.0     0.0     0.0     0.0     0.0     0.0     0.0     0.0     50.     91.     46.    105.     84.     82.     63.     63.     78.     81.     0.0     0.1     0.0     0.1     0.1     0.1     0.1     0.1     0.1     0.1     0.0     0.0     0.0     0.0     0.0     0.0     0.0     0.0     0.0     0.0     0.2     0.4     0.2     0.5     0.3     0.3     0.4     0.4     0.1     0.1
 1991 227    63    0.10    0.08    0.36     878    0.12   101.9   0.035   0.102   0.085   0.453     1.7     0.5     5.4   13332     0.0     972    0.00    0.97    0.00    3.31     0.0     0.0     0.0     0.0     0.0     0.0     0.0     0.0     0.0     0.0     49.     91.     45.    108.     86.     85.     65.     65.     81.     83.     0.0     0.1     0.0     0.1     0.1     0.1     0.1     0.1     0.1     0.1     0.0     0.0     0.0     0.0     0.0     0.0     0.0     0.0     0.0     0.0     0.2     0.4     0.2     0.5     0.3     0.3     0.4     0.4     0.1     0.1
 1991 228    64    0.10    0.08    0.36     891    0.12   102.8   0.035   0.103   0.085   0.455     0.6     0.2     1.8   13505     0.0     899    0.00    0.90    0.00    2.51     0.0     0.0     0.0     0.0     0.0     0.0     0.0     0.0     0.0     0.0     28.     63.     32.    105.     85.     84.     64.     64.     80.     82.     0.0     0.1     0.0     0.1     0.1     0.1     0.1     0.1     0.1     0.1     0.0     0.0     0.0     0.0     0.0     0.0     0.0     0.0     0.0     0.0     0.0     0.1     0.0     0.5     0.3     0.3     0.4     0.4     0.1     0.1
 1991 229    65    0.11    0.08    0.37     905    0.12   103.6   0.035   0.104   0.085   0.458     0.6     0.2     1.9   13330     0.0     871    0.00    0.87    0.00    2.13     0.0     0.0     0.0     0.0     0.0     0.0     0.0     0.0     0.0     0.0     34.     64.     31.     94.     71.     82.     63.     63.     78.     81.     0.0     0.1     0.0     0.1     0.1     0.1     0.1     0.1     0.1     0.1     0.0     0.0     0.0     0.0     0.0     0.0     0.0     0.0     0.0     0.0     0.0     0.0     0.0     0.2     0.3     0.3     0.4     0.4     0.1     0.1
 1991 230    66    0.11    0.08    0.37     918    0.12   104.6   0.035   0.105   0.085   0.460     1.2     0.3     3.8   13156     0.0     954    0.00    0.95    0.00    2.77     0.0     0.0     0.0     0.0     0.0     0.0     0.0     0.0     0.0     0.0     52.     95.     46.    104.     87.     81.     62.     62.     77.     80.     0.1     0.1     0.0     0.1     0.1     0.1     0.1     0.1     0.1     0.1     0.0     0.0     0.0     0.0     0.0     0.0     0.0     0.0     0.0     0.0     0.1     0.2     0.1     0.4     0.3     0.3     0.4     0.4     0.1     0.1
 1991 231    67    0.11    0.08    0.37     931    0.12   105.5   0.035   0.106   0.085   0.464     1.5     0.3     4.8   13256     0.0     964    0.00    0.96    0.00    3.29     0.0     0.0     0.0     0.0     0.0     0.0     0.0     0.0     0.0     0.0     52.     97.     48.    104.     86.     82.     63.     63.     78.     81.     0.1     0.1     0.0     0.1     0.1     0.1     0.1     0.1     0.1     0.1     0.0     0.0     0.0     0.0     0.0     0.0     0.0     0.0     0.0     0.0     0.2     0.5     0.2     0.5     0.3     0.3     0.4     0.4     0.1     0.1
 1991 232    68    0.11    0.08    0.38     944    0.12   106.5   0.035   0.107   0.085   0.467     1.4     0.3     4.6   13383     0.0     963    0.00    0.96    0.00    3.28     0.0     0.0     0.0     0.0     0.0     0.0     0.0     0.0     0.0     0.0     49.     94.     47.    104.     86.     83.     64.     63.     79.     82.     0.0     0.1     0.0     0.1     0.1     0.1     0.1     0.1     0.1     0.1     0.0     0.0     0.0     0.0     0.0     0.0     0.0     0.0     0.0     0.0     0.2     0.4     0.2     0.5     0.3     0.3     0.4     0.4     0.1     0.1
 1991 233    69    0.11    0.08    0.38     958    0.12   107.4   0.035   0.107   0.085   0.469     0.5     0.1     1.7   13659     0.0     897    0.00    0.90    0.00    2.19     0.0     0.0     0.0     0.0     0.0     0.0     0.0     0.0     0.0     0.0     32.     67.     33.    102.     74.     85.     62.     62.     81.     84.     0.0     0.1     0.0     0.1     0.1     0.1     0.1     0.1     0.1     0.1     0.0     0.0     0.0     0.0     0.0     0.0     0.0     0.0     0.0     0.0     0.0     0.1     0.0     0.3     0.3     0.3     0.4     0.4     0.1     0.1
 1991 234    70    0.11    0.08    0.38     972    0.12   108.4   0.035   0.108   0.085   0.472     1.1     0.2     3.6   13924     0.0    1029    0.00    1.03    0.00    3.11     0.0     0.0     0.0     0.0     0.0     0.0     0.0     0.0     0.0     0.0     55.    107.     53.    113.     96.     87.     65.     65.     83.     86.     0.1     0.1     0.1     0.1     0.1     0.1     0.1     0.1     0.1     0.1     0.0     0.0     0.0     0.0     0.0     0.0     0.0     0.0     0.0     0.0     0.1     0.3     0.2     0.5     0.4     0.3     0.4     0.4     0.1     0.1
 1991 235    71    0.11    0.08    0.39     986    0.12   109.5   0.035   0.109   0.085   0.476     1.3     0.2     4.3   13955     0.0    1017    0.00    1.02    0.00    3.46     0.0     0.0     0.0     0.0     0.0     0.0     0.0     0.0     0.0     0.0     53.    103.     51.    111.     92.     87.     66.     65.     83.     85.     0.1     0.1     0.1     0.1     0.1     0.1     0.1     0.1     0.1     0.1     0.0     0.0     0.0     0.0     0.0     0.0     0.0     0.0     0.0     0.0     0.3     0.5     0.2     0.5     0.3     0.3     0.4     0.4     0.1     0.1
 1991 236    72    0.11    0.08    0.39    1000    0.12   110.4   0.035   0.110   0.085   0.479     1.3     0.1     4.2   13685     0.0     974    0.00    0.97    0.00    3.29     0.0     0.0     0.0     0.0     0.0     0.0     0.0     0.0     0.0     0.0     48.     95.     47.    106.     87.     84.     64.     64.     80.     83.     0.0     0.1     0.0     0.1     0.1     0.1     0.1     0.1     0.1     0.1     0.0     0.0     0.0     0.0     0.0     0.0     0.0     0.0     0.0     0.0     0.2     0.4     0.2     0.5     0.3     0.3     0.4     0.4     0.1     0.1
 1991 237    73    0.11    0.08    0.39    1013    0.12   111.3   0.035   0.111   0.085   0.482     0.5     0.0     1.5   13403     0.7     868    0.07    0.87    0.66    2.61     0.0     0.0     0.0     0.0     0.0     0.0     0.3     0.5     0.0     0.0     29.     61.     31.     98.     71.     81.     63.     62.     78.     81.     0.0     0.1     0.0     0.1     0.1     0.1     0.1     0.1     0.1     0.1     0.0     0.0     0.0     0.0     0.0     0.0     0.2     0.4     0.0     0.0     0.0     0.0     0.0     0.3     0.3     0.3     0.5     0.6     0.1     0.1
 1991 238    74    0.11    0.08    0.40    1026    0.12   112.2   0.035   0.112   0.086   0.485     1.0     0.1     3.2   13196     0.6     948    0.06    0.95    0.56    3.16     0.0     0.0     0.0     0.0     0.0     0.0     0.2     0.4     0.0     0.0     48.     95.     47.    101.     88.     80.     62.     62.     77.     80.     0.0     0.1     0.0     0.1     0.1     0.1     0.1     0.1     0.1     0.1     0.0     0.0     0.0     0.0     0.0     0.0     0.2     0.4     0.0     0.0     0.1     0.3     0.1     0.5     0.3     0.3     0.5     0.6     0.1     0.1
 1991 239    75    0.12    0.08    0.40    1040    0.12   113.2   0.035   0.113   0.086   0.488     1.2     0.1     4.1   13282     0.5     958    0.05    0.96    0.47    3.55     0.0     0.0     0.0     0.0     0.0     0.0     0.1     0.4     0.0     0.0     49.     96.     48.    102.     86.     81.     63.     62.     78.     81.     0.0     0.1     0.0     0.1     0.1     0.1     0.1     0.1     0.1     0.1     0.0     0.0     0.0     0.0     0.0     0.0     0.1     0.4     0.0     0.0     0.2     0.5     0.2     0.5     0.3     0.3     0.4     0.6     0.1     0.1
 1991 240    76    0.12    0.08    0.41    1053    0.12   114.2   0.035   0.114   0.087   0.492     1.2     0.1     4.0   13469     0.4     967    0.04    0.97    0.38    3.52     0.0     0.0     0.0     0.0     0.0     0.0     0.1     0.3     0.0     0.0     48.     94.     47.    104.     87.     83.     64.     64.     80.     83.     0.0     0.1     0.0     0.1     0.1     0.1     0.1     0.1     0.1     0.1     0.0     0.0     0.0     0.0     0.0     0.0     0.1     0.3     0.0     0.0     0.2     0.4     0.2     0.5     0.3     0.3     0.4     0.6     0.1     0.1
 1991 241    77    0.12    0.08    0.41    1067    0.12   115.1   0.035   0.115   0.087   0.495     1.2     0.1     4.0   13615     0.3     973    0.03    0.97    0.31    3.50     0.0     0.0     0.0     0.0     0.0     0.0     0.0     0.3     0.0     0.0     47.     93.     46.    106.     87.     84.     65.     64.     81.     84.     0.0     0.1     0.0     0.1     0.1     0.1     0.1     0.1     0.1     0.1     0.0     0.0     0.0     0.0     0.0     0.0     0.0     0.3     0.0     0.0     0.2     0.4     0.2     0.5     0.3     0.3     0.4     0.6     0.1     0.1
 1991 242    78    0.12    0.08    0.41    1080    0.12   116.1   0.035   0.116   0.087   0.499     1.2     0.1     3.9   13552     0.3     970    0.03    0.97    0.24    3.45     0.0     0.0     0.0     0.0     0.0     0.0     0.0     0.3     0.0     0.0     46.     91.     46.    105.     86.     84.     68.     64.     81.     83.     0.0     0.1     0.0     0.1     0.1     0.1     0.1     0.1     0.1     0.1     0.0     0.0     0.0     0.0     0.0     0.0     0.0     0.2     0.0     0.0     0.2     0.4     0.2     0.5     0.3     0.3     0.4     0.5     0.1     0.1
 1991 243    79    0.12    0.08    0.42    1094    0.12   117.1   0.035   0.117   0.088   0.502     1.2     0.0     3.9   13586     0.2     981    0.02    0.98    0.19    3.46     0.0     0.0     0.0     0.0     0.0     0.0     0.0     0.2     0.0     0.0     47.     90.     45.    107.     88.     86.     68.     66.     82.     85.     0.0     0.1     0.0     0.1     0.1     0.1     0.1     0.1     0.1     0.1     0.0     0.0     0.0     0.0     0.0     0.0     0.0     0.2     0.0     0.0     0.2     0.4     0.2     0.5     0.3     0.3     0.4     0.5     0.1     0.1
 1991 244    80    0.12    0.08    0.42    1107    0.12   118.1   0.035   0.118   0.088   0.506     1.1     0.0     3.8   13588     0.2     981    0.02    0.98    0.14    3.42     0.0     0.0     0.0     0.0     0.0     0.0     0.0     0.2     0.0     0.0     46.     85.     43.    109.     89.     87.     68.     66.     83.     86.     0.0     0.1     0.0     0.1     0.1     0.1     0.1     0.1     0.1     0.1     0.0     0.0     0.0     0.0     0.0     0.0     0.0     0.1     0.0     0.0     0.2     0.4     0.2     0.5     0.3     0.3     0.4     0.5     0.1     0.1
 1991 245    81    0.12    0.08    0.42    1121    0.12   119.0   0.035   0.119   0.088   0.508     0.4     0.0     1.3   14012     0.1     926    0.01    0.93    0.09    2.66     0.0     0.0     0.0     0.0     0.0     0.0     0.0     0.1     0.0     0.0     28.     60.     32.    107.     89.     87.     68.     67.     83.     86.     0.0     0.1     0.0     0.1     0.1     0.1     0.1     0.1     0.1     0.1     0.0     0.0     0.0     0.0     0.0     0.0     0.0     0.1     0.0     0.0     0.0     0.1     0.0     0.5     0.3     0.3     0.4     0.5     0.1     0.1
 1991 246    82    0.12    0.08    0.43    1136    0.12   120.0   0.035   0.120   0.088   0.511     0.9     0.0     3.0   14176     0.0    1015    0.01    1.01    0.04    3.15     0.0     0.0     0.0     0.0     0.0     0.0     0.0     0.0     0.0     0.0     52.     96.     48.    110.     90.     89.     68.     68.     84.     87.     0.1     0.1     0.0     0.1     0.1     0.1     0.1     0.1     0.1     0.1     0.0     0.0     0.0     0.0     0.0     0.0     0.0     0.0     0.0     0.0     0.1     0.3     0.2     0.5     0.3     0.3     0.4     0.4     0.1     0.1
 1991 247    83    0.12    0.08    0.43    1150    0.12   121.0   0.035   0.121   0.088   0.515     1.2     0.0     3.8   14218     0.0    1022    0.00    1.02    0.00    3.49     0.0     0.0     0.0     0.0     0.0     0.0     0.0     0.0     0.0     0.0     54.     97.     48.    110.     90.     89.     68.     71.     84.     87.     0.1     0.1     0.0     0.1     0.1     0.1     0.1     0.1     0.1     0.1     0.0     0.0     0.0     0.0     0.0     0.0     0.0     0.0     0.0     0.0     0.3     0.5     0.2     0.5     0.3     0.3     0.4     0.4     0.1     0.1
 1991 248    84    0.13    0.08    0.43    1164    0.12   122.1   0.035   0.122   0.088   0.518     1.2     0.0     3.8   14254     0.0    1019    0.00    1.02    0.00    3.48     0.0     0.0     0.0     0.0     0.0     0.0     0.0     0.0     0.0     0.0     51.     97.     48.    111.     91.     89.     68.     69.     84.     87.     0.1     0.1     0.0     0.1     0.1     0.1     0.1     0.1     0.1     0.1     0.0     0.0     0.0     0.0     0.0     0.0     0.0     0.0     0.0     0.0     0.2     0.5     0.2     0.5     0.3     0.3     0.4     0.4     0.1     0.1
 1991 249    85    0.13    0.08    0.44    1178    0.12   123.1   0.035   0.123   0.088   0.522     1.1     0.0     3.8   14167     0.0    1008    0.00    1.01    0.00    3.44     0.0     0.0     0.0     0.0     0.0     0.0     0.0     0.0     0.0     0.0     49.     95.     47.    110.     90.     87.     68.     68.     84.     87.     0.0     0.1     0.0     0.1     0.1     0.1     0.1     0.1     0.1     0.1     0.0     0.0     0.0     0.0     0.0     0.0     0.0     0.0     0.0     0.0     0.2     0.4     0.2     0.5     0.3     0.3     0.4     0.4     0.1     0.1
 1991 250    86    0.13    0.08    0.44    1192    0.12   124.1   0.035   0.124   0.088   0.525     1.1     0.0     3.8   14210     0.0    1037    0.00    1.04    0.00    3.55     0.0     0.0     0.0     0.0     0.0     0.0     0.0     0.0     0.0     0.0     50.     98.     49.    114.     93.     89.     70.     70.     86.     89.     0.1     0.1     0.0     0.1     0.1     0.1     0.1     0.1     0.1     0.1     0.0     0.0     0.0     0.0     0.0     0.0     0.0     0.0     0.0     0.0     0.2     0.5     0.2     0.5     0.4     0.3     0.4     0.4     0.1     0.1
 1991 251    87    0.13    0.08    0.44    1207    0.12   125.2   0.035   0.125   0.088   0.529     1.1     0.0     3.8   14232     0.0    1050    0.00    1.05    0.00    3.60     0.0     0.0     0.0     0.0     0.0     0.0     0.0     0.0     0.0     0.0     49.     95.     47.    118.     96.     89.     72.     71.     88.     91.     0.0     0.1     0.0     0.1     0.1     0.1     0.1     0.1     0.1     0.1     0.0     0.0     0.0     0.0     0.0     0.0     0.0     0.0     0.0     0.0     0.2     0.5     0.2     0.5     0.4     0.4     0.4     0.4     0.1     0.1
 1991 252    88    0.13    0.08    0.45    1221    0.12   126.2   0.035   0.126   0.088   0.532     1.1     0.0     3.7   14116     0.0    1045    0.00    1.05    0.00    3.58     0.0     0.0     0.0     0.0     0.0     0.0     0.0     0.0     0.0     0.0     46.     88.     44.    119.     98.     88.     73.     73.     90.     92.     0.0     0.1     0.0     0.1     0.1     0.1     0.1     0.1     0.1     0.1     0.0     0.0     0.0     0.0     0.0     0.0     0.0     0.0     0.0     0.0     0.2     0.4     0.2     0.5     0.4     0.4     0.4     0.4     0.1     0.2
 1991 253    89    0.13    0.08    0.45    1235    0.12   127.2   0.035   0.127   0.088   0.536     1.1     0.0     3.7   13948     0.0    1027    0.00    1.03    0.00    3.51     0.0     0.0     0.0     0.0     0.0     0.0     0.0     0.0     0.0     0.0     42.     81.     40.    114.     96.     85.     74.     73.     91.     93.     0.0     0.1     0.0     0.1     0.1     0.1     0.1     0.1     0.1     0.1     0.0     0.0     0.0     0.0     0.0     0.0     0.0     0.0     0.0     0.0     0.2     0.4     0.2     0.5     0.4     0.3     0.4     0.4     0.1     0.2
 1991 254    90    0.13    0.08    0.46    1248    0.12   128.2   0.035   0.128   0.088   0.539     1.1     0.1     3.7   13700     0.0    1000    0.00    1.00    0.00    3.42     0.0     0.0     0.0     0.0     0.0     0.0     0.0     0.0     0.0     0.0     39.     75.     38.    106.     93.     81.     74.     73.     91.     93.     0.0     0.1     0.0     0.1     0.1     0.1     0.1     0.1     0.1     0.1     0.0     0.0     0.0     0.0     0.0     0.0     0.0     0.0     0.0     0.0     0.2     0.4     0.2     0.5     0.4     0.3     0.4     0.4     0.1     0.2
 1991 255    91    0.13    0.08    0.46    1263    0.12   129.2   0.035   0.129   0.088   0.542     0.4     0.0     1.4   14144     0.0     945    0.00    0.94    0.00    2.95     0.0     0.0     0.0     0.0     0.0     0.0     0.0     0.0     0.0     0.0     22.     67.     35.     95.     87.     76.     73.     72.     90.     92.     0.0     0.1     0.0     0.1     0.1     0.1     0.1     0.1     0.1     0.1     0.0     0.0     0.0     0.0     0.0     0.0     0.0     0.0     0.0     0.0     0.0     0.2     0.2     0.5     0.4     0.3     0.4     0.4     0.1     0.2
 1991 256    92    0.13    0.08    0.46    1277    0.12   130.1   0.035   0.130   0.088   0.545     0.4     0.0     1.4   14206     0.0     905    0.00    0.90    0.00    2.50     0.0     0.0     0.0     0.0     0.0     0.0     0.0     0.0     0.0     0.0     33.     61.     30.     82.     81.     70.     71.     70.     87.     90.     0.0     0.1     0.0     0.1     0.1     0.1     0.1     0.1     0.1     0.1     0.0     0.0     0.0     0.0     0.0     0.0     0.0     0.0     0.0     0.0     0.0     0.0     0.0     0.4     0.3     0.3     0.4     0.4     0.1     0.1
 1991 257    93    0.13    0.09    0.46    1291    0.12   131.1   0.035   0.131   0.088   0.548     0.9     0.1     3.1   14290     0.0    1016    0.00    1.02    0.00    3.09     0.0     0.0     0.0     0.0     0.0     0.0     0.0     0.0     0.0     0.0     59.    107.     53.     98.     79.     68.     72.     71.     88.     91.     0.1     0.1     0.1     0.1     0.1     0.1     0.1     0.1     0.1     0.1     0.0     0.0     0.0     0.0     0.0     0.0     0.0     0.0     0.0     0.0     0.2     0.3     0.1     0.4     0.3     0.3     0.4     0.4     0.1     0.1
 1991 258    94    0.14    0.09    0.47    1305    0.12   132.1   0.035   0.132   0.088   0.551     1.1     0.1     3.8   14179     0.0    1018    0.00    1.02    0.00    3.53     0.0     0.0     0.0     0.0     0.0     0.0     0.0     0.0     0.0     0.0     57.    107.     53.    108.     77.     65.     71.     71.     88.     91.     0.1     0.1     0.1     0.1     0.1     0.1     0.1     0.1     0.1     0.1     0.0     0.0     0.0     0.0     0.0     0.0     0.0     0.0     0.0     0.0     0.3     0.5     0.2     0.5     0.3     0.3     0.4     0.4     0.1     0.1
 1991 259    95    0.14    0.09    0.47    1319    0.12   133.1   0.035   0.133   0.088   0.555     1.1     0.1     3.8   14231     0.0    1026    0.00    1.03    0.00    3.56     0.0     0.0     0.0     0.0     0.0     0.0     0.0     0.0     0.0     0.0     54.    106.     53.    115.     76.     63.     73.     72.     89.     92.     0.1     0.1     0.1     0.1     0.1     0.1     0.1     0.1     0.1     0.1     0.0     0.0     0.0     0.0     0.0     0.0     0.0     0.0     0.0     0.0     0.3     0.5     0.2     0.5     0.3     0.3     0.4     0.4     0.1     0.2
 1991 260    96    0.14    0.09    0.47    1334    0.12   134.2   0.035   0.134   0.088   0.559     1.1     0.1     3.8   14213     0.0    1026    0.00    1.03    0.00    3.57     0.0     0.0     0.0     0.0     0.0     0.0     0.0     0.0     0.0     0.0     53.    105.     52.    118.     75.     60.     73.     72.     90.     92.     0.1     0.1     0.1     0.1     0.1     0.1     0.1     0.1     0.1     0.1     0.0     0.0     0.0     0.0     0.0     0.0     0.0     0.0     0.0     0.0     0.3     0.5     0.2     0.5     0.3     0.3     0.4     0.4     0.1     0.2
 1991 261    97    0.14    0.09    0.48    1348    0.12   135.2   0.035   0.135   0.088   0.562     1.1     0.1     3.8   14235     0.0    1056    0.00    1.06    0.00    3.70     0.0     0.0     0.0     0.0     0.0     0.0     0.0     0.0     0.0     0.0     54.    109.     54.    124.     75.     60.     76.     75.     93.     95.     0.1     0.1     0.1     0.1     0.1     0.1     0.1     0.1     0.1     0.1     0.0     0.0     0.0     0.0     0.0     0.0     0.0     0.0     0.0     0.0     0.3     0.5     0.3     0.6     0.3     0.3     0.5     0.4     0.2     0.2
 1991 262    98    0.14    0.09    0.48    1362    0.12   136.2   0.035   0.136   0.088   0.566     1.1     0.1     3.8   13678     0.0     995    0.00    0.99    0.00    3.47     0.0     0.0     0.0     0.0     0.0     0.0     0.0     0.0     0.0     0.0     47.     96.     48.    118.     68.     54.     73.     72.     90.     92.     0.0     0.1     0.0     0.1     0.1     0.1     0.1     0.1     0.1     0.1     0.0     0.0     0.0     0.0     0.0     0.0     0.0     0.0     0.0     0.0     0.2     0.5     0.2     0.5     0.3     0.3     0.4     0.4     0.1     0.2
 1991 263    99    0.14    0.09    0.48    1375    0.12   137.2   0.035   0.137   0.088   0.569     1.1     0.1     3.8   13229     0.0     960    0.00    0.96    0.00    3.34     0.0     0.0     0.0     0.0     0.0     0.0     0.0     0.0     0.0     0.0     43.     87.     44.    112.     65.     51.     72.     71.     89.     92.     0.0     0.1     0.0     0.1     0.1     0.1     0.1     0.1     0.1     0.1     0.0     0.0     0.0     0.0     0.0     0.0     0.0     0.0     0.0     0.0     0.2     0.4     0.2     0.5     0.3     0.3     0.4     0.4     0.1     0.2
 1991 264   100    0.14    0.09    0.49    1388    0.12   138.1   0.035   0.138   0.088   0.572     1.1     0.1     3.8   12842     0.0     936    0.00    0.94    0.00    3.26     0.0     0.0     0.0     0.0     0.0     0.0     0.0     0.0     0.0     0.0     40.     80.     41.    105.     62.     48.     73.     72.     89.     92.     0.0     0.1     0.0     0.1     0.1     0.0     0.1     0.1     0.1     0.1     0.0     0.0     0.0     0.0     0.0     0.0     0.0     0.0     0.0     0.0     0.2     0.4     0.2     0.5     0.3     0.2     0.4     0.4     0.1     0.2
 1991 265   101    0.14    0.09    0.49    1400    0.12   139.0   0.035   0.139   0.088   0.576     1.1     0.1     3.8   12496     0.0     905    0.00    0.90    0.00    3.14     0.0     0.0     0.0     0.0     0.0     0.0     0.0     0.0     0.0     0.0     37.     74.     38.     95.     58.     45.     73.     72.     89.     92.     0.0     0.1     0.0     0.1     0.1     0.0     0.1     0.1     0.1     0.1     0.0     0.0     0.0     0.0     0.0     0.0     0.0     0.0     0.0     0.0     0.2     0.4     0.2     0.5     0.3     0.2     0.4     0.4     0.1     0.2
 1991 266   102    0.14    0.09    0.50    1412    0.12   139.8   0.035   0.140   0.088   0.578     1.1     0.1     3.8   11835     0.0     828    0.00    0.83    0.00    2.84     0.0     0.0     0.0     0.0     0.0     0.0     0.0     0.0     0.0     0.0     31.     64.     33.     78.     49.     40.     68.     68.     84.     87.     0.0     0.1     0.0     0.1     0.0     0.0     0.1     0.1     0.1     0.1     0.0     0.0     0.0     0.0     0.0     0.0     0.0     0.0     0.0     0.0     0.2     0.3     0.2     0.4     0.2     0.2     0.4     0.4     0.1     0.1
 1991 267   103    0.15    0.09    0.50    1424    0.12   140.7   0.035   0.141   0.088   0.581     1.1     0.1     3.7   11796     0.0     846    0.00    0.85    0.00    2.92     0.0     0.0     0.0     0.0     0.0     0.0     0.0     0.0     0.0     0.0     30.     66.     33.     75.     48.     41.     72.     71.     88.     91.     0.0     0.1     0.0     0.1     0.0     0.0     0.1     0.1     0.1     0.1     0.0     0.0     0.0     0.0     0.0     0.0     0.0     0.0     0.0     0.0     0.2     0.3     0.2     0.4     0.2     0.2     0.4     0.4     0.1     0.1
 1991 268   104    0.15    0.09    0.50    1435    0.12   141.5   0.035   0.142   0.088   0.584     1.1     0.1     3.7   11578     0.0     820    0.00    0.82    0.00    2.80     0.0     0.0     0.0     0.0     0.0     0.0     0.0     0.0     0.0     0.0     27.     62.     32.     62.     43.     39.     72.     71.     88.     91.     0.0     0.1     0.0     0.1     0.0     0.0     0.1     0.1     0.1     0.1     0.0     0.0     0.0     0.0     0.0     0.0     0.0     0.0     0.0     0.0     0.1     0.3     0.2     0.3     0.2     0.2     0.4     0.4     0.1     0.1
 1991 269   105    0.15    0.09    0.51    1446    0.12   142.3   0.035   0.142   0.088   0.587     1.1     0.1     3.7   10986     0.0     762    0.00    0.76    0.00    2.56     0.0     0.0     0.0     0.0     0.0     0.0     0.0     0.0     0.0     0.0     22.     54.     28.     50.     37.     35.     69.     68.     85.     88.     0.0     0.1     0.0     0.0     0.0     0.0     0.1     0.1     0.1     0.1     0.0     0.0     0.0     0.0     0.0     0.0     0.0     0.0     0.0     0.0     0.1     0.3     0.1     0.3     0.2     0.2     0.4     0.4     0.1     0.1
 1991 270   106    0.15    0.09    0.51    1457    0.12   143.0   0.035   0.143   0.088   0.589     1.1     0.1     3.7   10590     0.0     727    0.00    0.73    0.00    2.42     0.0     0.0     0.0     0.0     0.0     0.0     0.0     0.0     0.0     0.0     19.     47.     24.     43.     33.     32.     68.     67.     84.     87.     0.0     0.0     0.0     0.0     0.0     0.0     0.1     0.1     0.1     0.1     0.0     0.0     0.0     0.0     0.0     0.0     0.0     0.0     0.0     0.0     0.1     0.2     0.1     0.2     0.2     0.2     0.4     0.4     0.1     0.1
 1991 271   107    0.15    0.09    0.51    1467    0.12   143.7   0.035   0.144   0.088   0.591     1.1     0.1     3.7   10500     0.0     720    0.00    0.72    0.00    2.37     0.0     0.0     0.0     0.0     0.0     0.0     0.0     0.0     0.0     0.0     17.     43.     22.     40.     32.     31.     69.     68.     85.     88.     0.0     0.0     0.0     0.0     0.0     0.0     0.1     0.1     0.1     0.1     0.0     0.0     0.0     0.0     0.0     0.0     0.0     0.0     0.0     0.0     0.1     0.2     0.1     0.2     0.2     0.2     0.4     0.4     0.1     0.1
 1991 272   108    0.15    0.09    0.52    1478    0.12   144.4   0.035   0.144   0.088   0.594     1.1     0.1     3.6   10202     0.0     689    0.00    0.69    0.00    2.24     0.0     0.0     0.0     0.0     0.0     0.0     0.0     0.0     0.0     0.0     15.     37.     19.     36.     29.     29.     67.     67.     83.     86.     0.0     0.0     0.0     0.0     0.0     0.0     0.1     0.1     0.1     0.1     0.0     0.0     0.0     0.0     0.0     0.0     0.0     0.0     0.0     0.0     0.1     0.2     0.1     0.2     0.2     0.2     0.4     0.4     0.1     0.1
 1991 273   109    0.15    0.09    0.52    1488    0.12   145.1   0.035   0.145   0.088   0.596     1.0     0.1     3.6   10187     0.0     689    0.00    0.69    0.00    2.22     0.0     0.0     0.0     0.0     0.0     0.0     0.0     0.0     0.0     0.0     13.     34.     18.     34.     29.     28.     68.     68.     84.     87.     0.0     0.0     0.0     0.0     0.0     0.0     0.1     0.1     0.1     0.1     0.0     0.0     0.0     0.0     0.0     0.0     0.0     0.0     0.0     0.0     0.1     0.2     0.1     0.2     0.2     0.2     0.4     0.4     0.1     0.1
 1991 274   110    0.15    0.09    0.52    1498    0.12   145.8   0.035   0.146   0.088   0.598     1.0     0.1     3.5   10369     0.0     705    0.00    0.70    0.00    2.27     0.0     0.0     0.0     0.0     0.0     0.0     0.0     0.0     0.0     0.0     13.     33.     17.     34.     29.     28.     71.     70.     87.     90.     0.0     0.0     0.0     0.0     0.0     0.0     0.1     0.1     0.1     0.1     0.0     0.0     0.0     0.0     0.0     0.0     0.0     0.0     0.0     0.0     0.1     0.2     0.1     0.2     0.2     0.2     0.4     0.4     0.1     0.1
 1991 275   111    0.15    0.09    0.53    1509    0.12   146.5   0.035   0.147   0.088   0.600     1.0     0.1     3.5   10533     0.0     716    0.00    0.72    0.00    2.30     0.0     0.0     0.0     0.0     0.0     0.0     0.0     0.0     0.0     0.0     12.     31.     17.     34.     29.     29.     74.     72.     90.     92.     0.0     0.0     0.0     0.0     0.0     0.0     0.1     0.1     0.1     0.1     0.0     0.0     0.0     0.0     0.0     0.0     0.0     0.0     0.0     0.0     0.1     0.2     0.1     0.2     0.2     0.2     0.4     0.4     0.1     0.2
 1991 276   112    0.16    0.09    0.53    1520    0.12   147.3   0.035   0.147   0.088   0.603     1.0     0.1     3.4   10816     0.0     738    0.00    0.74    0.00    2.37     0.0     0.0     0.0     0.0     0.0     0.0     0.0     0.0     0.0     0.0     13.     31.     16.     35.     30.     29.     77.     76.     93.     96.     0.0     0.0     0.0     0.0     0.0     0.0     0.1     0.1     0.1     0.1     0.0     0.0     0.0     0.0     0.0     0.0     0.0     0.0     0.0     0.0     0.1     0.2     0.1     0.2     0.2     0.2     0.5     0.5     0.2     0.2
 1991 277   113    0.16    0.09    0.54    1531    0.12   148.0   0.035   0.148   0.088   0.605     1.0     0.1     3.3   11121     0.0     759    0.00    0.76    0.00    2.43     0.0     0.0     0.0     0.0     0.0     0.0     0.0     0.0     0.0     0.0     13.     30.     16.     35.     31.     30.     80.     79.     97.     99.     0.0     0.0     0.0     0.0     0.0     0.0     0.1     0.1     0.1     0.1     0.0     0.0     0.0     0.0     0.0     0.0     0.0     0.0     0.0     0.0     0.1     0.2     0.1     0.2     0.2     0.2     0.5     0.5     0.2     0.2
 1991 278   114    0.16    0.09    0.54    1542    0.12   148.8   0.035   0.149   0.088   0.608     1.0     0.1     3.3   11241     0.0     758    0.00    0.76    0.00    2.42     0.0     0.0     0.0     0.0     0.0     0.0     0.0     0.0     0.0     0.0     13.     29.     15.     34.     30.     30.     80.     79.     97.    100.     0.0     0.0     0.0     0.0     0.0     0.0     0.1     0.1     0.1     0.1     0.0     0.0     0.0     0.0     0.0     0.0     0.0     0.0     0.0     0.0     0.1     0.1     0.1     0.2     0.2     0.2     0.5     0.5     0.2     0.2
 1991 279   115    0.16    0.09    0.54    1553    0.12   149.5   0.035   0.150   0.088   0.616     0.9     0.1     3.3   11125     0.0     736    0.00    0.74    0.00    8.77     0.0     0.0     0.0     0.0     0.0     0.0     0.0     0.0     0.0     0.0     13.     27.     14.     32.     29.     28.     78.     77.     95.     97.     0.0     0.0     0.0     0.0     0.0     0.0     0.1     0.1     0.1     0.1     0.0     0.0     0.0     0.0     0.0     0.0     0.0     0.0     0.0     0.0     0.3     0.5     0.3     0.7     0.6     0.6     1.7     1.7     0.6     0.6
 1991 280   116    0.16    0.09    0.54    1564    0.12   150.2   0.035   0.150   0.088   0.624     0.8     0.1     2.8   11317     0.0     739    0.00    0.74    0.00    7.15     0.0     0.0     0.0     0.0     0.0     0.0     0.0     0.0     0.0     0.0     25.     27.     13.     32.     28.     27.     77.     76.     94.     96.     0.0     0.0     0.0     0.0     0.0     0.0     0.1     0.1     0.1     0.1     0.0     0.0     0.0     0.0     0.0     0.0     0.0     0.0     0.0     0.0     0.4     0.4     0.2     0.6     0.5     0.5     1.4     1.4     0.5     0.5
 1991 281   117    0.16    0.09    0.55    1575    0.12   151.0   0.035   0.151   0.088   0.629     0.8     0.1     3.0   10976     0.0     720    0.00    0.72    0.00    5.67     0.0     0.0     0.0     0.0     0.0     0.0     0.0     0.0     0.0     0.0     33.     25.     13.     30.     26.     25.     74.     73.     90.     93.     0.0     0.0     0.0     0.0     0.0     0.0     0.1     0.1     0.1     0.1     0.0     0.0     0.0     0.0     0.0     0.0     0.0     0.0     0.0     0.0     0.4     0.3     0.2     0.4     0.4     0.4     1.1     1.1     0.4     0.4
 1991 282   118    0.16    0.09    0.55    1586    0.12   151.7   0.035   0.152   0.088   0.634     0.8     0.1     3.1   10763     0.0     707    0.00    0.71    0.00    4.53     0.0     0.0     0.0     0.0     0.0     0.0     0.0     0.0     0.0     0.0     31.     25.     12.     29.     25.     25.     73.     72.     89.     92.     0.0     0.0     0.0     0.0     0.0     0.0     0.1     0.1     0.1     0.1     0.0     0.0     0.0     0.0     0.0     0.0     0.0     0.0     0.0     0.0     0.3     0.3     0.1     0.3     0.3     0.3     0.9     0.9     0.3     0.3
 1991 283   119    0.16    0.09    0.55    1597    0.12   152.4   0.035   0.152   0.088   0.637     0.8     0.0     3.1   10579     0.0     695    0.00    0.69    0.00    3.60     0.0     0.0     0.0     0.0     0.0     0.0     0.0     0.0     0.0     0.0     28.     25.     12.     29.     24.     24.     72.     71.     88.     91.     0.0     0.0     0.0     0.0     0.0     0.0     0.1     0.1     0.1     0.1     0.0     0.0     0.0     0.0     0.0     0.0     0.0     0.0     0.0     0.0     0.2     0.2     0.1     0.3     0.2     0.2     0.7     0.7     0.2     0.2
 1991 284   120    0.16    0.09    0.56    1607    0.12   153.1   0.035   0.153   0.088   0.640     0.9     0.0     3.1   10675     0.0     709    0.00    0.71    0.00    2.99     0.0     0.0     0.0     0.0     0.0     0.0     0.0     0.0     0.0     0.0     25.     26.     13.     30.     25.     24.     74.     73.     90.     93.     0.0     0.0     0.0     0.0     0.0     0.0     0.1     0.1     0.1     0.1     0.0     0.0     0.0     0.0     0.0     0.0     0.0     0.0     0.0     0.0     0.2     0.2     0.1     0.2     0.2     0.2     0.6     0.6     0.2     0.2
 1991 285   121    0.16    0.09    0.56    1618    0.12   153.8   0.035   0.154   0.088   0.643     0.8     0.0     3.1   10657     0.0     706    0.00    0.71    0.00    2.41     0.0     0.0     0.0     0.0     0.0     0.0     0.0     0.0     0.0     0.0     22.     26.     13.     30.     25.     24.     74.     73.     90.     93.     0.0     0.0     0.0     0.0     0.0     0.0     0.1     0.1     0.1     0.1     0.0     0.0     0.0     0.0     0.0     0.0     0.0     0.0     0.0     0.0     0.1     0.1     0.1     0.2     0.2     0.2     0.5     0.5     0.2     0.2
 1991 286   122    0.16    0.09    0.56    1629    0.12   154.5   0.035   0.155   0.088   0.645     0.8     0.0     3.1   10815     0.0     722    0.00    0.72    0.00    2.30     0.0     0.0     0.0     0.0     0.0     0.0     0.0     0.0     0.0     0.0     20.     27.     13.     31.     25.     25.     76.     75.     93.     95.     0.0     0.0     0.0     0.0     0.0     0.0     0.1     0.1     0.1     0.1     0.0     0.0     0.0     0.0     0.0     0.0     0.0     0.0     0.0     0.0     0.1     0.1     0.1     0.2     0.1     0.1     0.5     0.4     0.2     0.2
 1991 287   123    0.16    0.09    0.57    1639    0.12   155.2   0.035   0.155   0.088   0.647     0.8     0.0     3.1   10585     0.0     696    0.00    0.70    0.00    2.20     0.0     0.0     0.0     0.0     0.0     0.0     0.0     0.0     0.0     0.0     17.     25.     12.     29.     24.     24.     73.     72.     90.     92.     0.0     0.0     0.0     0.0     0.0     0.0     0.1     0.1     0.1     0.1     0.0     0.0     0.0     0.0     0.0     0.0     0.0     0.0     0.0     0.0     0.1     0.1     0.1     0.2     0.1     0.1     0.4     0.4     0.1     0.2
 1991 288   124    0.17    0.09    0.57    1650    0.12   155.9   0.035   0.156   0.088   0.649     0.8     0.0     3.1   10391     0.0     679    0.00    0.68    0.00    2.13     0.0     0.0     0.0     0.0     0.0     0.0     0.0     0.0     0.0     0.0     14.     24.     12.     29.     24.     23.     71.     71.     88.     91.     0.0     0.0     0.0     0.0     0.0     0.0     0.1     0.1     0.1     0.1     0.0     0.0     0.0     0.0     0.0     0.0     0.0     0.0     0.0     0.0     0.1     0.1     0.1     0.2     0.1     0.1     0.4     0.4     0.1     0.1
 1991 289   125    0.17    0.09    0.57    1660    0.12   156.5   0.035   0.157   0.088   0.652     0.8     0.0     3.0   10311     0.0     673    0.00    0.67    0.00    2.11     0.0     0.0     0.0     0.0     0.0     0.0     0.0     0.0     0.0     0.0     13.     24.     12.     28.     23.     23.     71.     70.     87.     90.     0.0     0.0     0.0     0.0     0.0     0.0     0.1     0.1     0.1     0.1     0.0     0.0     0.0     0.0     0.0     0.0     0.0     0.0     0.0     0.0     0.1     0.1     0.1     0.2     0.1     0.1     0.4     0.4     0.1     0.1
 1991 290   126    0.17    0.09    0.58    1670    0.12   157.2   0.035   0.157   0.088   0.654     0.8     0.0     3.0   10222     0.0     666    0.00    0.67    0.00    2.09     0.0     0.0     0.0     0.0     0.0     0.0     0.0     0.0     0.0     0.0     12.     24.     12.     28.     23.     23.     70.     70.     87.     89.     0.0     0.0     0.0     0.0     0.0     0.0     0.1     0.1     0.1     0.1     0.0     0.0     0.0     0.0     0.0     0.0     0.0     0.0     0.0     0.0     0.1     0.1     0.1     0.2     0.1     0.1     0.4     0.4     0.1     0.1
 1991 291   127    0.17    0.09    0.58    1680    0.12   157.9   0.035   0.158   0.088   0.656     0.8     0.0     3.0   10124     0.0     659    0.00    0.66    0.00    2.06     0.0     0.0     0.0     0.0     0.0     0.0     0.0     0.0     0.0     0.0     11.     24.     12.     28.     23.     23.     70.     69.     86.     89.     0.0     0.0     0.0     0.0     0.0     0.0     0.1     0.1     0.1     0.1     0.0     0.0     0.0     0.0     0.0     0.0     0.0     0.0     0.0     0.0     0.1     0.1     0.1     0.2     0.1     0.1     0.4     0.4     0.1     0.1
 1991 292   128    0.17    0.09    0.58    1691    0.12   158.5   0.035   0.159   0.088   0.658     0.8     0.0     3.0   10220     0.0     671    0.00    0.67    0.00    2.10     0.0     0.0     0.0     0.0     0.0     0.0     0.0     0.0     0.0     0.0     11.     24.     12.     28.     23.     23.     71.     70.     87.     90.     0.0     0.0     0.0     0.0     0.0     0.0     0.1     0.1     0.1     0.1     0.0     0.0     0.0     0.0     0.0     0.0     0.0     0.0     0.0     0.0     0.1     0.1     0.1     0.2     0.1     0.1     0.4     0.4     0.1     0.1

*DSSAT Cropping System Model Ver. 4.7.5.008 -release  JAN 15, 2021 21:49:57

*RUN   2        : ERiMA DCC1                MZCER047 ETMZpolo    1
 MODEL          : MZCER047 - Maize
 EXPERIMENT     : ETMZpolo SN MELKSSAL
 DATA PATH      : C:\Users\kpodo\Documents\GitHub\ET_DSS_hist_Eunjin\TEST\
 TREATMENT  1   : ERiMA DCC1                MZCER047
  
!              |---------------------------------- Cumulative ---------------------------------|---------------------------------- Daily --------------------------------------|
!               N2Oemit  N2emit  NOemit     CO2   Denit  Nitrif   N2O-denit+nit      N2      NO N2Oemit  N2emit  NOemit     CO2   Denit  Nitrif   N2O-denit+nit      N2      NO   Denitrification (g[N]/ha) by soil depth (cm):                                   Nitrification (g[N]/ha) by soil depth (cm):                                     N2O flux (g[N]/ha) by soil depth (cm):                                          N2 flux (g[N]/ha) by soil depth (cm):                                           NO flux (g[N]/ha) by soil depth (cm):
!                 kg/ha   kg/ha   kg/ha   kg/ha   kg/ha   kg/ha   kg/ha   kg/ha   kg/ha   kg/ha    g/ha    g/ha    g/ha    g/ha    g/ha    g/ha    g/ha    g/ha    g/ha    g/ha     0-5    5-15   15-20   20-35   35-50   50-65   65-81   81-97  97-118 118-200     0-5    5-15   15-20   20-35   35-50   50-65   65-81   81-97  97-118 118-200     0-5    5-15   15-20   20-35   35-50   50-65   65-81   81-97  97-118 118-200     0-5    5-15   15-20   20-35   35-50   50-65   65-81   81-97  97-118 118-200     0-5    5-15   15-20   20-35   35-50   50-65   65-81   81-97  97-118 118-200
@YEAR DOY   DAS   N2OEC    N2EC    NOEC   CO2TC    NDNC    NITC   N2ODC   N2ONC   N2FLC   NOFLC   N2OED    N2ED    NOED   CO2TD    NDND   NITRD   N2ODD   N2OND   N2FLD   NOFLD   NDN1D   NDN2D   NDN3D   NDN4D   NDN5D   NDN6D   NDN7D   NDN8D   NDN9D   NDN10   NIT1D   NIT2D   NIT3D   NIT4D   NIT5D   NIT6D   NIT7D   NIT8D   NIT9D   NIT10   N2O1D   N2O2D   N2O3D   N2O4D   N2O5D   N2O6D   N2O7D   N2O8D   N2O9D   N2O10   N2F1D   N2F2D   N2F3D   N2F4D   N2F5D   N2F6D   N2F7D   N2F8D   N2F9D   N2F10   NOF1D   NOF2D   NOF3D   NOF4D   NOF5D   NOF6D   NOF7D   NOF8D   NOF9D   NOF10
 1992 165     1    0.00    0.00    0.00      16    0.00     1.3   0.000   0.002   0.000   0.006     0.0     0.0     0.1   15503     0.0    1289    0.00    1.29    0.00    3.88     0.0     0.0     0.0     0.0     0.0     0.0     0.0     0.0     0.0     0.0     39.     76.     37.    109.     97.     94.     88.     86.    139.    141.     0.0     0.1     0.0     0.1     0.1     0.1     0.1     0.1     0.1     0.1     0.0     0.0     0.0     0.0     0.0     0.0     0.0     0.0     0.0     0.0     0.2     0.4     0.2     0.5     0.4     0.4     0.5     0.5     0.2     0.2
 1992 166     2    0.00    0.00    0.00      31    0.00     2.5   0.000   0.003   0.000   0.020     0.0     0.0     0.3   15311     0.0    1174    0.00    1.17    0.00   14.10     0.0     0.0     0.0     0.0     0.0     0.0     0.0     0.0     0.0     0.0     46.     91.     45.    114.     96.     94.     79.     77.    111.    114.     0.0     0.1     0.0     0.1     0.1     0.1     0.1     0.1     0.1     0.1     0.0     0.0     0.0     0.0     0.0     0.0     0.0     0.0     0.0     0.0     0.8     1.6     0.8     1.9     1.4     1.3     1.8     1.7     0.7     0.7
 1992 167     3    0.00    0.00    0.01      46    0.00    12.8   0.000   0.013   0.000   0.081     1.4     0.0     7.6   15323     0.0   10309    0.00   10.31    0.00   61.40     0.0     0.0     0.0     0.0     0.0     0.0     0.0     0.0     0.0     0.0   9231.     98.     49.    117.     97.     95.     76.     74.    100.    102.     9.2     0.1     0.0     0.1     0.1     0.1     0.1     0.1     0.1     0.1     0.0     0.0     0.0     0.0     0.0     0.0     0.0     0.0     0.0     0.0    50.8     1.4     0.7     1.6     1.1     1.1     1.4     1.4     0.5     0.5
[...]
 2018 265   101    0.30    0.30    0.66    1294    0.49   141.7   0.186   0.142   0.308   0.755     1.0     0.3     3.7   12375     0.0     895    0.00    0.89    0.00    3.09     0.0     0.0     0.0     0.0     0.0     0.0     0.0     0.0     0.0     0.0     45.     89.     44.    101.     56.     51.     64.     64.     84.     83.     0.0     0.1     0.0     0.1     0.1     0.1     0.1     0.1     0.1     0.1     0.0     0.0     0.0     0.0     0.0     0.0     0.0     0.0     0.0     0.0     0.2     0.4     0.2     0.5     0.3     0.2     0.4     0.4     0.1     0.1
 2018 266   102    0.30    0.30    0.66    1306    0.49   142.6   0.186   0.143   0.308   0.758     1.0     0.3     3.7   12184     0.0     885    0.00    0.89    0.00    3.06     0.0     0.0     0.0     0.0     0.0     0.0     0.0     0.0     0.0     0.0     43.     87.     44.    102.     54.     48.     64.     64.     82.     83.     0.0     0.1     0.0     0.1     0.1     0.0     0.1     0.1     0.1     0.1     0.0     0.0     0.0     0.0     0.0     0.0     0.0     0.0     0.0     0.0     0.2     0.4     0.2     0.5     0.3     0.2     0.4     0.4     0.1     0.1
 2018 267   103    0.30    0.30    0.66    1318    0.49   143.4   0.186   0.144   0.308   0.761     1.0     0.3     3.7   11938     0.0     878    0.00    0.88    0.00    3.04     0.0     0.0     0.0     0.0     0.0     0.0     0.0     0.0     0.0     0.0     41.     83.     42.    103.     52.     47.     65.     64.     81.     83.     0.0     0.1     0.0     0.1     0.1     0.0     0.1     0.1     0.1     0.1     0.0     0.0     0.0     0.0     0.0     0.0     0.0     0.0     0.0     0.0     0.2     0.4     0.2     0.5     0.2     0.2     0.4     0.4     0.1     0.1
 2018 268   104    0.30    0.30    0.67    1330    0.49   144.3   0.186   0.145   0.308   0.764     1.0     0.3     3.8   11693     0.0     858    0.00    0.86    0.00    2.97     0.0     0.0     0.0     0.0     0.0     0.0     0.0     0.0     0.0     0.0     39.     77.     39.    100.     50.     44.     65.     64.     81.     83.     0.0     0.1     0.0     0.1     0.1     0.0     0.1     0.1     0.1     0.1     0.0     0.0     0.0     0.0     0.0     0.0     0.0     0.0     0.0     0.0     0.2     0.4     0.2     0.5     0.2     0.2     0.4     0.4     0.1     0.1
 2018 269   105    0.30    0.30    0.67    1341    0.49   145.1   0.186   0.146   0.308   0.767     1.0     0.3     3.8   11449     0.0     842    0.00    0.84    0.00    2.91     0.0     0.0     0.0     0.0     0.0     0.0     0.0     0.0     0.0     0.0     36.     72.     37.     95.     48.     42.     65.     65.     81.     84.     0.0     0.1     0.0     0.1     0.0     0.0     0.1     0.1     0.1     0.1     0.0     0.0     0.0     0.0     0.0     0.0     0.0     0.0     0.0     0.0     0.2     0.3     0.2     0.4     0.2     0.2     0.4     0.4     0.1     0.1
 2018 270   106    0.30    0.30    0.67    1352    0.49   146.0   0.186   0.147   0.308   0.770     1.0     0.3     3.8   11177     0.0     817    0.00    0.82    0.00    2.82     0.0     0.0     0.0     0.0     0.0     0.0     0.0     0.0     0.0     0.0     34.     67.     34.     87.     44.     40.     65.     64.     81.     84.     0.0     0.1     0.0     0.1     0.0     0.0     0.1     0.1     0.1     0.1     0.0     0.0     0.0     0.0     0.0     0.0     0.0     0.0     0.0     0.0     0.2     0.3     0.2     0.4     0.2     0.2     0.4     0.4     0.1     0.1
 2018 271   107    0.30    0.30    0.68    1363    0.49   146.8   0.186   0.147   0.308   0.773     1.0     0.3     3.8   10933     0.0     798    0.00    0.80    0.00    2.75     0.0     0.0     0.0     0.0     0.0     0.0     0.0     0.0     0.0     0.0     32.     63.     32.     79.     41.     38.     65.     65.     81.     84.     0.0     0.1     0.0     0.1     0.0     0.0     0.1     0.1     0.1     0.1     0.0     0.0     0.0     0.0     0.0     0.0     0.0     0.0     0.0     0.0     0.2     0.3     0.2     0.4     0.2     0.2     0.4     0.4     0.1     0.1
 2018 272   108    0.31    0.30    0.68    1374    0.49   147.5   0.186   0.148   0.308   0.775     1.0     0.3     3.9   10655     0.0     772    0.00    0.77    0.00    2.65     0.0     0.0     0.0     0.0     0.0     0.0     0.0     0.0     0.0     0.0     29.     60.     30.     65.     38.     36.     66.     65.     81.     84.     0.0     0.1     0.0     0.1     0.0     0.0     0.1     0.1     0.1     0.1     0.0     0.0     0.0     0.0     0.0     0.0     0.0     0.0     0.0     0.0     0.2     0.3     0.1     0.3     0.2     0.2     0.4     0.4     0.1     0.1
 2018 273   109    0.31    0.30    0.69    1384    0.49   148.3   0.186   0.149   0.308   0.778     1.0     0.3     3.9   10409     0.0     746    0.00    0.75    0.00    2.53     0.0     0.0     0.0     0.0     0.0     0.0     0.0     0.0     0.0     0.0     26.     55.     28.     53.     35.     34.     66.     65.     82.     85.     0.0     0.1     0.0     0.1     0.0     0.0     0.1     0.1     0.1     0.1     0.0     0.0     0.0     0.0     0.0     0.0     0.0     0.0     0.0     0.0     0.1     0.3     0.1     0.3     0.2     0.2     0.4     0.4     0.1     0.1
 2018 274   110    0.31    0.30    0.69    1394    0.49   149.0   0.186   0.150   0.308   0.787     1.0     0.3     4.0   10217     0.0     721    0.00    0.72    0.00    9.04     0.0     0.0     0.0     0.0     0.0     0.0     0.0     0.0     0.0     0.0     23.     48.     25.     45.     32.     31.     66.     65.     82.     85.     0.0     0.0     0.0     0.0     0.0     0.0     0.1     0.1     0.1     0.1     0.0     0.0     0.0     0.0     0.0     0.0     0.0     0.0     0.0     0.0     0.5     0.9     0.5     0.9     0.7     0.6     1.5     1.5     0.5     0.5
 2018 275   111    0.31    0.30    0.69    1405    0.49   149.7   0.186   0.150   0.308   0.794     0.9     0.3     3.7   10393     0.0     708    0.00    0.71    0.00    7.08     0.0     0.0     0.0     0.0     0.0     0.0     0.0     0.0     0.0     0.0     24.     43.     22.     40.     30.     30.     66.     66.     82.     85.     0.0     0.0     0.0     0.0     0.0     0.0     0.1     0.1     0.1     0.1     0.0     0.0     0.0     0.0     0.0     0.0     0.0     0.0     0.0     0.0     0.3     0.7     0.3     0.7     0.5     0.5     1.2     1.2     0.4     0.4
 2018 276   112    0.31    0.30    0.70    1415    0.49   150.4   0.186   0.151   0.308   0.800     1.0     0.3     4.0   10147     0.0     704    0.00    0.70    0.00    5.73     0.0     0.0     0.0     0.0     0.0     0.0     0.0     0.0     0.0     0.0     34.     38.     19.     37.     29.     29.     66.     65.     82.     85.     0.0     0.0     0.0     0.0     0.0     0.0     0.1     0.1     0.1     0.1     0.0     0.0     0.0     0.0     0.0     0.0     0.0     0.0     0.0     0.0     0.4     0.5     0.2     0.5     0.4     0.4     1.0     1.0     0.3     0.3
 2018 277   113    0.31    0.30    0.70    1425    0.49   151.1   0.186   0.152   0.308   0.804     1.0     0.3     4.1    9992     0.0     687    0.00    0.69    0.00    4.51     0.0     0.0     0.0     0.0     0.0     0.0     0.0     0.0     0.0     0.0     31.     34.     18.     34.     28.     28.     66.     65.     81.     84.     0.0     0.0     0.0     0.0     0.0     0.0     0.1     0.1     0.1     0.1     0.0     0.0     0.0     0.0     0.0     0.0     0.0     0.0     0.0     0.0     0.3     0.4     0.2     0.4     0.3     0.3     0.8     0.8     0.3     0.3
 2018 278   114    0.31    0.30    0.71    1435    0.49   151.8   0.186   0.152   0.308   0.808     1.0     0.3     4.1    9864     0.0     673    0.00    0.67    0.00    3.56     0.0     0.0     0.0     0.0     0.0     0.0     0.0     0.0     0.0     0.0     27.     31.     16.     32.     27.     27.     65.     65.     81.     84.     0.0     0.0     0.0     0.0     0.0     0.0     0.1     0.1     0.1     0.1     0.0     0.0     0.0     0.0     0.0     0.0     0.0     0.0     0.0     0.0     0.2     0.3     0.1     0.3     0.2     0.2     0.6     0.6     0.2     0.2
 2018 279   115    0.31    0.30    0.71    1445    0.49   152.4   0.186   0.153   0.308   0.811     1.0     0.3     4.1    9740     0.0     659    0.00    0.66    0.00    2.81     0.0     0.0     0.0     0.0     0.0     0.0     0.0     0.0     0.0     0.0     23.     29.     15.     30.     26.     26.     65.     65.     81.     84.     0.0     0.0     0.0     0.0     0.0     0.0     0.1     0.1     0.1     0.1     0.0     0.0     0.0     0.0     0.0     0.0     0.0     0.0     0.0     0.0     0.2     0.2     0.1     0.2     0.2     0.2     0.5     0.5     0.2     0.2
 2018 280   116    0.31    0.30    0.71    1454    0.49   153.1   0.186   0.154   0.308   0.813     1.0     0.3     4.1    9651     0.0     650    0.00    0.65    0.00    2.23     0.0     0.0     0.0     0.0     0.0     0.0     0.0     0.0     0.0     0.0     20.     26.     14.     29.     25.     25.     65.     64.     81.     84.     0.0     0.0     0.0     0.0     0.0     0.0     0.1     0.1     0.1     0.1     0.0     0.0     0.0     0.0     0.0     0.0     0.0     0.0     0.0     0.0     0.1     0.1     0.1     0.2     0.2     0.2     0.4     0.4     0.1     0.1
 2018 281   117    0.31    0.30    0.72    1464    0.49   153.7   0.186   0.154   0.308   0.815     0.9     0.3     4.1    9615     0.0     645    0.00    0.65    0.00    2.05     0.0     0.0     0.0     0.0     0.0     0.0     0.0     0.0     0.0     0.0     18.     25.     13.     28.     25.     25.     65.     65.     81.     84.     0.0     0.0     0.0     0.0     0.0     0.0     0.1     0.1     0.1     0.1     0.0     0.0     0.0     0.0     0.0     0.0     0.0     0.0     0.0     0.0     0.1     0.1     0.1     0.2     0.1     0.1     0.4     0.4     0.1     0.1
 2018 282   118    0.31    0.30    0.72    1473    0.49   154.4   0.186   0.155   0.308   0.817     0.9     0.3     4.0    9576     0.0     640    0.00    0.64    0.00    2.02     0.0     0.0     0.0     0.0     0.0     0.0     0.0     0.0     0.0     0.0     16.     23.     12.     27.     24.     24.     65.     65.     81.     84.     0.0     0.0     0.0     0.0     0.0     0.0     0.1     0.1     0.1     0.1     0.0     0.0     0.0     0.0     0.0     0.0     0.0     0.0     0.0     0.0     0.1     0.1     0.1     0.2     0.1     0.1     0.4     0.4     0.1     0.1
 2018 283   119    0.32    0.30    0.73    1483    0.49   155.0   0.186   0.156   0.308   0.819     0.9     0.3     4.0    9571     0.0     637    0.00    0.64    0.00    2.00     0.0     0.0     0.0     0.0     0.0     0.0     0.0     0.0     0.0     0.0     14.     23.     12.     27.     24.     24.     66.     65.     81.     84.     0.0     0.0     0.0     0.0     0.0     0.0     0.1     0.1     0.1     0.1     0.0     0.0     0.0     0.0     0.0     0.0     0.0     0.0     0.0     0.0     0.1     0.1     0.1     0.2     0.1     0.1     0.4     0.4     0.1     0.1
 2018 284   120    0.32    0.30    0.73    1493    0.49   155.6   0.186   0.156   0.308   0.821     0.9     0.3     3.9    9601     0.0     637    0.00    0.64    0.00    1.99     0.0     0.0     0.0     0.0     0.0     0.0     0.0     0.0     0.0     0.0     12.     22.     11.     27.     23.     23.     66.     66.     82.     85.     0.0     0.0     0.0     0.0     0.0     0.0     0.1     0.1     0.1     0.1     0.0     0.0     0.0     0.0     0.0     0.0     0.0     0.0     0.0     0.0     0.1     0.1     0.1     0.2     0.1     0.1     0.4     0.4     0.1     0.1
 2018 285   121    0.32    0.30    0.73    1502    0.49   156.3   0.186   0.157   0.308   0.823     0.9     0.3     3.8    9619     0.0     636    0.00    0.64    0.00    1.99     0.0     0.0     0.0     0.0     0.0     0.0     0.0     0.0     0.0     0.0     11.     22.     11.     26.     23.     23.     66.     66.     82.     85.     0.0     0.0     0.0     0.0     0.0     0.0     0.1     0.1     0.1     0.1     0.0     0.0     0.0     0.0     0.0     0.0     0.0     0.0     0.0     0.0     0.1     0.1     0.1     0.2     0.1     0.1     0.4     0.4     0.1     0.1
 2018 286   122    0.32    0.30    0.74    1512    0.49   156.9   0.186   0.158   0.308   0.825     0.9     0.2     3.8    9607     0.0     634    0.00    0.63    0.00    1.98     0.0     0.0     0.0     0.0     0.0     0.0     0.0     0.0     0.0     0.0     11.     22.     11.     26.     23.     23.     66.     66.     82.     85.     0.0     0.0     0.0     0.0     0.0     0.0     0.1     0.1     0.1     0.1     0.0     0.0     0.0     0.0     0.0     0.0     0.0     0.0     0.0     0.0     0.1     0.1     0.1     0.2     0.1     0.1     0.4     0.4     0.1     0.1
 2018 287   123    0.32    0.31    0.74    1521    0.49   157.5   0.186   0.158   0.308   0.827     0.8     0.2     3.7    9630     0.0     635    0.00    0.64    0.00    1.98     0.0     0.0     0.0     0.0     0.0     0.0     0.0     0.0     0.0     0.0     10.     22.     11.     26.     23.     23.     66.     66.     82.     85.     0.0     0.0     0.0     0.0     0.0     0.0     0.1     0.1     0.1     0.1     0.0     0.0     0.0     0.0     0.0     0.0     0.0     0.0     0.0     0.0     0.1     0.1     0.1     0.2     0.1     0.1     0.4     0.4     0.1     0.1
 2018 288   124    0.32    0.31    0.75    1531    0.49   158.2   0.186   0.159   0.308   0.829     0.8     0.2     3.6    9618     0.0     633    0.00    0.63    0.00    1.97     0.0     0.0     0.0     0.0     0.0     0.0     0.0     0.0     0.0     0.0     10.     22.     11.     26.     22.     22.     66.     66.     82.     85.     0.0     0.0     0.0     0.0     0.0     0.0     0.1     0.1     0.1     0.1     0.0     0.0     0.0     0.0     0.0     0.0     0.0     0.0     0.0     0.0     0.1     0.1     0.1     0.2     0.1     0.1     0.4     0.4     0.1     0.1
 2018 289   125    0.32    0.31    0.75    1541    0.49   158.8   0.186   0.159   0.308   0.831     0.7     0.2     3.1    9770     0.0     637    0.00    0.64    0.00    1.98     0.0     0.0     0.0     0.0     0.0     0.0     0.0     0.0     0.0     0.0     19.     22.     11.     26.     22.     22.     66.     65.     81.     85.     0.0     0.0     0.0     0.0     0.0     0.0     0.1     0.1     0.1     0.1     0.0     0.0     0.0     0.0     0.0     0.0     0.0     0.0     0.0     0.0     0.1     0.1     0.1     0.2     0.1     0.1     0.4     0.4     0.1     0.1
 2018 290   126    0.32    0.31    0.75    1551    0.49   159.4   0.186   0.160   0.308   0.833     0.7     0.2     3.1    9727     0.0     643    0.00    0.64    0.00    2.02     0.0     0.0     0.0     0.0     0.0     0.0     0.0     0.0     0.0     0.0     25.     22.     11.     26.     22.     22.     66.     65.     82.     85.     0.0     0.0     0.0     0.0     0.0     0.0     0.1     0.1     0.1     0.1     0.0     0.0     0.0     0.0     0.0     0.0     0.0     0.0     0.0     0.0     0.1     0.1     0.1     0.1     0.1     0.1     0.4     0.4     0.1     0.1
 2018 291   127    0.32    0.31    0.75    1560    0.49   160.1   0.186   0.161   0.308   0.835     0.7     0.2     3.2    9702     0.0     644    0.00    0.64    0.00    2.03     0.0     0.0     0.0     0.0     0.0     0.0     0.0     0.0     0.0     0.0     26.     22.     11.     26.     22.     22.     66.     65.     82.     85.     0.0     0.0     0.0     0.0     0.0     0.0     0.1     0.1     0.1     0.1     0.0     0.0     0.0     0.0     0.0     0.0     0.0     0.0     0.0     0.0     0.1     0.1     0.1     0.2     0.1     0.1     0.4     0.4     0.1     0.1
 2018 292   128    0.32    0.31    0.76    1570    0.49   160.7   0.186   0.161   0.308   0.837     0.7     0.2     3.2    9680     0.0     643    0.00    0.64    0.00    2.02     0.0     0.0     0.0     0.0     0.0     0.0     0.0     0.0     0.0     0.0     24.     22.     11.     26.     22.     21.     66.     65.     82.     85.     0.0     0.0     0.0     0.0     0.0     0.0     0.1     0.1     0.1     0.1     0.0     0.0     0.0     0.0     0.0     0.0     0.0     0.0     0.0     0.0     0.1     0.1     0.1     0.2     0.1     0.1     0.4     0.4     0.1     0.1
 2018 293   129    0.32    0.31    0.76    1580    0.49   161.4   0.186   0.162   0.308   0.839     0.7     0.2     3.2    9651     0.0     640    0.00    0.64    0.00    2.01     0.0     0.0     0.0     0.0     0.0     0.0     0.0     0.0     0.0     0.0     21.     22.     11.     26.     22.     21.     66.     65.     82.     85.     0.0     0.0     0.0     0.0     0.0     0.0     0.1     0.1     0.1     0.1     0.0     0.0     0.0     0.0     0.0     0.0     0.0     0.0     0.0     0.0     0.1     0.1     0.1     0.2     0.1     0.1     0.4     0.4     0.1     0.1
 2018 294   130    0.32    0.31    0.76    1589    0.49   162.0   0.186   0.163   0.308   0.841     0.7     0.2     3.2    9677     0.0     642    0.00    0.64    0.00    2.02     0.0     0.0     0.0     0.0     0.0     0.0     0.0     0.0     0.0     0.0     19.     22.     11.     26.     22.     22.     66.     66.     82.     85.     0.0     0.0     0.0     0.0     0.0     0.0     0.1     0.1     0.1     0.1     0.0     0.0     0.0     0.0     0.0     0.0     0.0     0.0     0.0     0.0     0.1     0.1     0.1     0.2     0.1     0.1     0.4     0.4     0.1     0.1
 2018 295   131    0.33    0.31    0.77    1599    0.49   162.7   0.186   0.163   0.308   0.843     0.7     0.2     3.2    9659     0.0     640    0.00    0.64    0.00    2.00     0.0     0.0     0.0     0.0     0.0     0.0     0.0     0.0     0.0     0.0     17.     22.     11.     26.     22.     22.     66.     66.     82.     85.     0.0     0.0     0.0     0.0     0.0     0.0     0.1     0.1     0.1     0.1     0.0     0.0     0.0     0.0     0.0     0.0     0.0     0.0     0.0     0.0     0.1     0.1     0.1     0.2     0.1     0.1     0.4     0.4     0.1     0.1
 2018 296   132    0.33    0.31    0.77    1609    0.49   163.3   0.186   0.164   0.308   0.845     0.7     0.1     3.2    9663     0.0     640    0.00    0.64    0.00    2.00     0.0     0.0     0.0     0.0     0.0     0.0     0.0     0.0     0.0     0.0     15.     22.     11.     26.     22.     22.     67.     66.     82.     86.     0.0     0.0     0.0     0.0     0.0     0.0     0.1     0.1     0.1     0.1     0.0     0.0     0.0     0.0     0.0     0.0     0.0     0.0     0.0     0.0     0.1     0.1     0.1     0.2     0.1     0.1     0.4     0.4     0.1     0.1
 2018 297   133    0.33    0.31    0.77    1618    0.49   163.9   0.186   0.165   0.308   0.847     0.7     0.1     3.1    9622     0.0     635    0.00    0.64    0.00    1.98     0.0     0.0     0.0     0.0     0.0     0.0     0.0     0.0     0.0     0.0     13.     22.     11.     26.     22.     22.     66.     66.     82.     85.     0.0     0.0     0.0     0.0     0.0     0.0     0.1     0.1     0.1     0.1     0.0     0.0     0.0     0.0     0.0     0.0     0.0     0.0     0.0     0.0     0.1     0.1     0.1     0.2     0.1     0.1     0.4     0.4     0.1     0.1
 2018 298   134    0.33    0.31    0.78    1628    0.49   164.6   0.186   0.165   0.308   0.849     0.7     0.1     3.1    9629     0.0     634    0.00    0.63    0.00    1.98     0.0     0.0     0.0     0.0     0.0     0.0     0.0     0.0     0.0     0.0     12.     22.     11.     26.     22.     22.     66.     66.     82.     85.     0.0     0.0     0.0     0.0     0.0     0.0     0.1     0.1     0.1     0.1     0.0     0.0     0.0     0.0     0.0     0.0     0.0     0.0     0.0     0.0     0.1     0.1     0.1     0.2     0.1     0.1     0.4     0.4     0.1     0.1
