*SIMULATION OVERVIEW FILE

*DSSAT Cropping System Model Ver. 4.7.5.008 -release  JAN 15, 2021 21:49:57

*RUN   1        : ERiMA DCC1                MZCER047 ETMZpolo    1
 MODEL          : MZCER047 - Maize
 EXPERIMENT     : ETMZpolo SN MELKSSAL
 DATA PATH      : C:\Users\kpodo\Documents\GitHub\ET_DSS_hist_Eunjin\TEST\
 TREATMENT  1   : ERiMA DCC1                MZCER047


 CROP           : Maize            CULTIVAR : BH540-Kassie     ECOTYPE :IB0001
 STARTING DATE  : JUN 14 1991
 PLANTING DATE  : JUN 15 1991        PLANTS/m2 :  6.0     ROW SPACING :  75.cm
 WEATHER        : MELK   1991
 SOIL           : ETET001_18     TEXTURE : L     -   ET000_18
 SOIL INITIAL C : DEPTH:200cm EXTR. H2O:300.3mm  NO3: 39.6kg/ha  NH4:  2.4kg/ha
 WATER BALANCE  : RAINFED
 IRRIGATION     : NOT IRRIGATED
 NITROGEN BAL.  : SOIL-N & N-UPTAKE SIMULATION; NO N-FIXATION
 N-FERTILIZER   :       60 kg/ha IN     2 APPLICATIONS
 RESIDUE/MANURE : INITIAL :     0 kg/ha ;       0 kg/ha IN     0 APPLICATIONS
 ENVIRONM. OPT. : DAYL=    0.00  SRAD=    0.00  TMAX=    0.00  TMIN=    0.00
                  RAIN=    0.00  CO2 =    0.00  DEW =    0.00  WIND=    0.00
 SIMULATION OPT : WATER   :Y  NITROGEN:Y  N-FIX:N  PHOSPH :N  PESTS  :N
                  PHOTO   :C  ET      :R  INFIL:S  HYDROL :R  SOM    :G
                  CO2     :D  NSWIT   :1  EVAP :S  SOIL   :2  STEMP  :D
 MANAGEMENT OPT : PLANTING:R  IRRIG   :N  FERT :D  RESIDUE:N  HARVEST:M
                  WEATHER :M  TILLAGE :N

*SUMMARY OF SOIL AND GENETIC INPUT PARAMETERS

   SOIL LOWER UPPER   SAT  EXTR  INIT   ROOT   BULK     pH    NO3    NH4    ORG
  DEPTH LIMIT LIMIT    SW    SW    SW   DIST   DENS                          C
   cm   cm3/cm3    cm3/cm3    cm3/cm3         g/cm3         ugN/g  ugN/g     %
-------------------------------------------------------------------------------
  0-  5 0.166 0.260 0.433 0.094 0.231   1.00   1.20   7.90  15.00   0.10   1.50
  5- 15 0.166 0.260 0.433 0.094 0.231   1.00   1.20   7.90  15.00   0.10   1.50
 15- 20 0.166 0.260 0.433 0.094 0.231   1.00   1.20   7.90  15.00   0.10   1.50
 20- 35 0.121 0.264 0.434 0.143 0.221   0.58   1.20   8.00   2.00   0.10   1.48
 35- 50 0.121 0.316 0.466 0.195 0.316   0.10   1.10   8.30   0.00   0.10   1.46
 50- 65 0.121 0.316 0.466 0.195 0.316   0.10   1.10   8.30   0.00   0.10   1.46
 65- 81 0.134 0.304 0.477 0.170 0.304   0.00   1.00   8.50   0.00   0.10   1.40
 81- 97 0.134 0.304 0.477 0.170 0.304   0.00   1.00   8.50   0.00   0.10   1.40
 97-118 0.156 0.305 0.433 0.149 0.305   0.00   1.28   8.60   0.00   0.10   0.98
118-140 0.156 0.305 0.433 0.149 0.305   0.00   1.28   8.60   0.00   0.10   0.98
140-170 0.162 0.298 0.428 0.136 0.298   0.00   1.36   8.50   0.00   0.10   0.78
170-200 0.173 0.314 0.433 0.141 0.314   0.00   1.33   8.30   0.00   0.10   0.78

TOT-200  29.8  59.8  88.9  30.0  58.6  <--cm   -  kg/ha-->   39.6    2.4 272505
SOIL ALBEDO    : 0.13      EVAPORATION LIMIT : 6.00         MIN. FACTOR  : 1.00
RUNOFF CURVE # :81.00      DRAINAGE RATE     : 0.60         FERT. FACTOR : 0.70

 Maize      CULTIVAR :CIMT01-BH540-Kassie       ECOTYPE :IB0001
 P1     : 220.10  P2     : 0.8600  P5     : 840.10
 G2     : 266.20  G3     : 10.650  PHINT  : 38.900


*SIMULATED CROP AND SOIL STATUS AT MAIN DEVELOPMENT STAGES

 RUN NO.     1     ERiMA DCC1              

        CROP GROWTH     BIOMASS         LEAF   CROP N     STRESS      STRESS                                           
   DATE  AGE STAGE        kg/ha    LAI   NUM  kg/ha  %   H2O  Nitr Phos1 Phos2  RSTG                                   
 ------  --- ----------   -----  -----  ----  ---  ---  ----  ----  ----  ----  ----                                   
 14 JUN    0 Start Sim        0   0.00   0.0    0  0.0  0.00  0.00  0.00  0.00     7
 15 JUN    0 Sowing           0   0.00   0.0    0  0.0  0.00  0.00  0.00  0.00     8
 16 JUN    1 Germinate        0   0.00   0.0    0  0.0  0.00  0.00  0.00  0.00     9
 20 JUN    5 Emergence       24   0.00   2.0    1  4.4  0.00  0.01  0.00  0.00     1
  6 JUL   21 End Juveni     176   0.35   8.5    6  3.4  0.09  0.00  0.00  0.00     2
 11 JUL   26 Floral Ini     388   0.68  10.3   15  3.8  0.00  0.00  0.00  0.00     3
 23 AUG   69 75% Silkin    7411   3.77  21.5  114  1.5  0.00  0.08  0.00  0.00     4
  6 SEP   83 Beg Gr Fil    9860   3.32  21.5  119  1.2  0.00  0.18  0.00  0.00     5
  Crop mature on JD 290 due to slowed grain filling
 18 OCT  125 End Gr Fil   12340   1.18  21.5  123  1.0  0.50  0.04  0.00  0.00     6
 19 OCT  126 Maturity     12340   1.18  21.5  123  1.0  1.00  0.00  0.00  0.00    10
 19 OCT  126 Harvest      12340   1.18  21.5  123  1.0  0.00  0.00  0.00  0.00    10


*MAIN GROWTH AND DEVELOPMENT VARIABLES

@     VARIABLE                                         SIMULATED     MEASURED
      --------                                         ---------     --------
      Anthesis day (dap)                                      69          -99
      Physiological maturity day (dap)                       126          -99
      Yield at harvest maturity (kg [dm]/ha)                3157          -99
      Number at maturity (no/m2)                             936          -99
      Unit wt at maturity (g [dm]/unit)                   0.3374          -99
      Number at maturity (no/unit)                         155.9          -99
      Tops weight at maturity (kg [dm]/ha)                 12340          -99
      By-product produced (stalk) at maturity (kg[dm]/ha    9254          -99
      Leaf area index, maximum                              3.86          -99
      Harvest index at maturity                            0.256          -99
      Grain N at maturity (kg/ha)                             54          -99
      Tops N at maturity (kg/ha)                             123          -99
      Stem N at maturity (kg/ha)                              69          -99
      Grain N at maturity (%)                                1.7          -99
      Tops weight at anthesis (kg [dm]/ha)                  7241          -99
      Tops N at anthesis (kg/ha)                             113          -99
      Leaf number per stem at maturity                     21.55          -99
      Emergence day (dap)                                      5          -99


*ENVIRONMENTAL AND STRESS FACTORS

 |-----Development Phase------|--------------------------------------Environment--------------------------------------|-----------------Stress-----------------|
                              |---------------Average--------------|-----Cumulative-----|--------Count of days--------|          (0=Min, 1=Max Stress)         |
                         Time  Temp  Temp  Temp Solar Photop                Evapo    Pot TMIN TMIN TMAX TMAX TMAX RAIN|----Water----|---Nitrogen--|-Phosphorus-|
                         Span   Max   Min  Mean   Rad  [day]    CO2   Rain  Trans     ET   <    <    >    >    >    >   Photo         Photo         Photo
                         days    øC    øC    øC MJ/m2     hr    ppm     mm     mm     mm  0øC  2øC 30øC 32øC 34øC  0mm  synth Growth  synth Growth  synth Growth
----------------------------------------------------------------------------------------------------------------------------------------------------------------
 Emergence-End Juvenile    16  27.2  15.6  21.4  20.2  12.49  380.0   41.8   33.7   81.5    0    0    2    0    0    4  0.018  0.085  0.002  0.006  0.000  0.000
 End Juvenil-Floral Init    5  26.4  16.0  21.2  18.7  12.47  380.0   23.9   18.2   23.0    0    0    0    0    0    1  0.000  0.000  0.001  0.003  0.000  0.000
 Floral Init-End Lf Grow   43  24.9  15.4  20.1  20.0  12.36  380.0  233.0  184.6  190.2    0    0    0    0    0   14  0.000  0.000  0.029  0.072  0.000  0.000
 End Lf Grth-Beg Grn Fil   14  25.8  14.6  20.2  20.5  12.17  380.0   58.7   62.1   62.4    0    0    0    0    0    2  0.000  0.000  0.076  0.191  0.000  0.000
 Grain Filling Phase       42  28.2  14.6  21.4  23.0  11.96  380.0   43.4  122.6  218.4    0    0    5    0    0    3  0.455  0.481  0.018  0.044  0.000  0.000
   
 Planting to Harvest      126  26.7  15.1  20.9  21.2  12.22  380.0  400.8  425.5  612.3    0    0   11    1    0   24  0.162  0.179  0.025  0.061  0.000  0.000
----------------------------------------------------------------------------------------------------------------------------------------------------------------


*Resource Productivity
 Growing season length: 126 days 

 Precipitation during growing season       400.8 mm[rain]
   Dry Matter Productivity                  3.08 kg[DM]/m3[rain]          =   30.8 kg[DM]/ha per mm[rain]
   Yield Productivity                       0.79 kg[grain yield]/m3[rain] =    7.9 kg[yield]/ha per mm[rain]

 Evapotranspiration during growing season  425.5 mm[ET]
   Dry Matter Productivity                  2.90 kg[DM]/m3[ET]            =   29.0 kg[DM]/ha per mm[ET]
   Yield Productivity                       0.74 kg[grain yield]/m3[ET]   =    7.4 kg[yield]/ha per mm[ET]

 Transpiration during growing season       314.2 mm[EP]
   Dry Matter Productivity                  3.93 kg[DM]/m3[EP]            =   39.3 kg[DM]/ha per mm[EP]
   Yield Productivity                       1.00 kg[grain yield]/m3[EP]   =   10.0 kg[yield]/ha per mm[EP]

 N applied during growing season             60. kg[N applied]/ha
   Dry Matter Productivity                 205.7 kg[DM]/kg[N applied]
   Yield Productivity                       52.6 kg[yield]/kg[N applied]

 N uptake during growing season              139 kg[N uptake]/ha
   Dry Matter Productivity                  88.8 kg[DM]/kg[N uptake]
   Yield Productivity                       22.7 kg[yield]/kg[N uptake]

--------------------------------------------------------------------------------------------------------------

                     Maize YIELD :     3157 kg/ha    [Dry weight] 

**************************************************************************************************************

*DSSAT Cropping System Model Ver. 4.7.5.008 -release  JAN 15, 2021 21:49:57

*RUN   2        : ERiMA DCC1                MZCER047 ETMZpolo    1
 MODEL          : MZCER047 - Maize
 EXPERIMENT     : ETMZpolo SN MELKSSAL
 DATA PATH      : C:\Users\kpodo\Documents\GitHub\ET_DSS_hist_Eunjin\TEST\
 TREATMENT  1   : ERiMA DCC1                MZCER047


 CROP           : Maize            CULTIVAR : BH540-Kassie     ECOTYPE :IB0001
 STARTING DATE  : JUN 13 1992
 PLANTING DATE  : JUN 14 1992        PLANTS/m2 :  6.0     ROW SPACING :  75.cm
 WEATHER        : MELK9201
 SOIL           : ETET001_18     TEXTURE : L     -   ET000_18
 SOIL INITIAL C : DEPTH:200cm EXTR. H2O:300.3mm  NO3: 39.6kg/ha  NH4:  2.4kg/ha
 WATER BALANCE  : RAINFED
 IRRIGATION     : NOT IRRIGATED
 NITROGEN BAL.  : SOIL-N & N-UPTAKE SIMULATION; NO N-FIXATION
 N-FERTILIZER   :       60 kg/ha IN     2 APPLICATIONS
 RESIDUE/MANURE : INITIAL :     0 kg/ha ;       0 kg/ha IN     0 APPLICATIONS
 ENVIRONM. OPT. : DAYL=    0.00  SRAD=    0.00  TMAX=    0.00  TMIN=    0.00
                  RAIN=    0.00  CO2 =    0.00  DEW =    0.00  WIND=    0.00
 SIMULATION OPT : WATER   :Y  NITROGEN:Y  N-FIX:N  PHOSPH :N  PESTS  :N
                  PHOTO   :C  ET      :R  INFIL:S  HYDROL :R  SOM    :G
                  CO2     :D  NSWIT   :1  EVAP :S  SOIL   :2  STEMP  :D
 MANAGEMENT OPT : PLANTING:R  IRRIG   :N  FERT :D  RESIDUE:N  HARVEST:M
                  WEATHER :M  TILLAGE :N

*SUMMARY OF SOIL AND GENETIC INPUT PARAMETERS

   SOIL LOWER UPPER   SAT  EXTR  INIT   ROOT   BULK     pH    NO3    NH4    ORG
  DEPTH LIMIT LIMIT    SW    SW    SW   DIST   DENS                          C
   cm   cm3/cm3    cm3/cm3    cm3/cm3         g/cm3         ugN/g  ugN/g     %
-------------------------------------------------------------------------------
  0-  5 0.166 0.260 0.433 0.094 0.231   1.00   1.20   7.90  15.00   0.10   1.50
  5- 15 0.166 0.260 0.433 0.094 0.231   1.00   1.20   7.90  15.00   0.10   1.50
 15- 20 0.166 0.260 0.433 0.094 0.231   1.00   1.20   7.90  15.00   0.10   1.50
 20- 35 0.121 0.264 0.434 0.143 0.221   0.58   1.20   8.00   2.00   0.10   1.48
 35- 50 0.121 0.316 0.466 0.195 0.316   0.10   1.10   8.30   0.00   0.10   1.46
 50- 65 0.121 0.316 0.466 0.195 0.316   0.10   1.10   8.30   0.00   0.10   1.46
 65- 81 0.134 0.304 0.477 0.170 0.304   0.00   1.00   8.50   0.00   0.10   1.40
 81- 97 0.134 0.304 0.477 0.170 0.304   0.00   1.00   8.50   0.00   0.10   1.40
 97-118 0.156 0.305 0.433 0.149 0.305   0.00   1.28   8.60   0.00   0.10   0.98
118-140 0.156 0.305 0.433 0.149 0.305   0.00   1.28   8.60   0.00   0.10   0.98
140-170 0.162 0.298 0.428 0.136 0.298   0.00   1.36   8.50   0.00   0.10   0.78
170-200 0.173 0.314 0.433 0.141 0.314   0.00   1.33   8.30   0.00   0.10   0.78

TOT-200  29.8  59.8  88.9  30.0  58.6  <--cm   -  kg/ha-->   39.6    2.4 272505
SOIL ALBEDO    : 0.13      EVAPORATION LIMIT : 6.00         MIN. FACTOR  : 1.00
RUNOFF CURVE # :81.00      DRAINAGE RATE     : 0.60         FERT. FACTOR : 0.70

 Maize      CULTIVAR :CIMT01-BH540-Kassie       ECOTYPE :IB0001
 P1     : 220.10  P2     : 0.8600  P5     : 840.10
 G2     : 266.20  G3     : 10.650  PHINT  : 38.900


*SIMULATED CROP AND SOIL STATUS AT MAIN DEVELOPMENT STAGES

 RUN NO.     2     ERiMA DCC1              

        CROP GROWTH     BIOMASS         LEAF   CROP N     STRESS      STRESS                                           
   DATE  AGE STAGE        kg/ha    LAI   NUM  kg/ha  %   H2O  Nitr Phos1 Phos2  RSTG                                   
 ------  --- ----------   -----  -----  ----  ---  ---  ----  ----  ----  ----  ----                                   
 13 JUN    0 Start Sim        0   0.00   0.0    0  0.0  0.00  0.00  0.00  0.00     7
 14 JUN    0 Sowing           0   0.00   0.0    0  0.0  0.00  0.00  0.00  0.00     8
 15 JUN    1 Germinate        0   0.00   0.0    0  0.0  0.00  0.00  0.00  0.00     9
 19 JUN    5 Emergence       24   0.00   2.1    1  4.4  0.00  0.01  0.00  0.00     1
  4 JUL   20 End Juveni     196   0.39   8.6    7  3.4  0.00  0.00  0.00  0.00     2
  9 JUL   25 Floral Ini     443   0.76  10.5   17  3.9  0.00  0.00  0.00  0.00     3
 20 AUG   67 75% Silkin    7040   3.68  21.7  110  1.6  0.00  0.06  0.00  0.00     4
  4 SEP   82 Beg Gr Fil    9705   3.30  21.7  115  1.2  0.00  0.15  0.00  0.00     5
 27 OCT  135 End Gr Fil   14710   1.67  21.7  124  0.8  0.10  0.18  0.00  0.00     6
 31 OCT  139 Maturity     14710   1.67  21.7  124  0.8  0.93  0.44  0.00  0.00    10
 31 OCT  139 Harvest      14710   1.67  21.7  124  0.8  0.00  0.00  0.00  0.00    10


*MAIN GROWTH AND DEVELOPMENT VARIABLES

@     VARIABLE                                         SIMULATED     MEASURED
      --------                                         ---------     --------
      Anthesis day (dap)                                      67          -99
      Physiological maturity day (dap)                       139          -99
      Yield at harvest maturity (kg [dm]/ha)                5109          -99
      Number at maturity (no/m2)                             942          -99
      Unit wt at maturity (g [dm]/unit)                   0.5425          -99
      Number at maturity (no/unit)                         157.0          -99
      Tops weight at maturity (kg [dm]/ha)                 14710          -99
      By-product produced (stalk) at maturity (kg[dm]/ha    9669          -99
      Leaf area index, maximum                              3.72          -99
      Harvest index at maturity                            0.347          -99
      Grain N at maturity (kg/ha)                             76          -99
      Tops N at maturity (kg/ha)                             124          -99
      Stem N at maturity (kg/ha)                              48          -99
      Grain N at maturity (%)                                1.5          -99
      Tops weight at anthesis (kg [dm]/ha)                  6830          -99
      Tops N at anthesis (kg/ha)                             110          -99
      Leaf number per stem at maturity                     21.67          -99
      Emergence day (dap)                                      5          -99


*ENVIRONMENTAL AND STRESS FACTORS

 |-----Development Phase------|--------------------------------------Environment--------------------------------------|-----------------Stress-----------------|
                              |---------------Average--------------|-----Cumulative-----|--------Count of days--------|          (0=Min, 1=Max Stress)         |
                         Time  Temp  Temp  Temp Solar Photop                Evapo    Pot TMIN TMIN TMAX TMAX TMAX RAIN|----Water----|---Nitrogen--|-Phosphorus-|
                         Span   Max   Min  Mean   Rad  [day]    CO2   Rain  Trans     ET   <    <    >    >    >    >   Photo         Photo         Photo
                         days    øC    øC    øC MJ/m2     hr    ppm     mm     mm     mm  0øC  2øC 30øC 32øC 34øC  0mm  synth Growth  synth Growth  synth Growth
----------------------------------------------------------------------------------------------------------------------------------------------------------------
 Emergence-End Juvenile    15  28.2  16.6  22.4  20.0  12.49  380.0   68.2   53.1   78.4    0    0    4    0    0    4  0.000  0.000  0.002  0.005  0.000  0.000
 End Juvenil-Floral Init    5  28.0  16.4  22.2  19.6  12.47  380.0    0.0   19.5   24.6    0    0    1    0    0    0  0.000  0.000  0.001  0.003  0.000  0.000
 Floral Init-End Lf Grow   42  25.1  16.0  20.6  17.8  12.37  380.0  326.5  158.4  167.0    0    0    0    0    0   17  0.000  0.000  0.022  0.056  0.000  0.000
 End Lf Grth-Beg Grn Fil   15  24.0  15.5  19.7  20.5  12.18  380.0   85.4   65.6   66.0    0    0    0    0    0    5  0.000  0.000  0.063  0.157  0.000  0.000
 Grain Filling Phase       53  25.3  14.2  19.7  21.3  11.92  380.0  156.1  221.4  244.9    0    0    0    0    0    9  0.071  0.087  0.069  0.173  0.000  0.000
   
 Planting to Harvest      139  25.7  15.2  20.4  20.1  12.18  380.0  655.0  540.5  630.9    0    0    7    0    0   37  0.052  0.059  0.045  0.113  0.000  0.000
----------------------------------------------------------------------------------------------------------------------------------------------------------------


*Resource Productivity
 Growing season length: 139 days 

 Precipitation during growing season       655.0 mm[rain]
   Dry Matter Productivity                  2.25 kg[DM]/m3[rain]          =   22.5 kg[DM]/ha per mm[rain]
   Yield Productivity                       0.78 kg[grain yield]/m3[rain] =    7.8 kg[yield]/ha per mm[rain]

 Evapotranspiration during growing season  540.5 mm[ET]
   Dry Matter Productivity                  2.72 kg[DM]/m3[ET]            =   27.2 kg[DM]/ha per mm[ET]
   Yield Productivity                       0.95 kg[grain yield]/m3[ET]   =    9.5 kg[yield]/ha per mm[ET]

 Transpiration during growing season       392.3 mm[EP]
   Dry Matter Productivity                  3.75 kg[DM]/m3[EP]            =   37.5 kg[DM]/ha per mm[EP]
   Yield Productivity                       1.30 kg[grain yield]/m3[EP]   =   13.0 kg[yield]/ha per mm[EP]

 N applied during growing season             60. kg[N applied]/ha
   Dry Matter Productivity                 245.2 kg[DM]/kg[N applied]
   Yield Productivity                       85.2 kg[yield]/kg[N applied]

 N uptake during growing season              142 kg[N uptake]/ha
   Dry Matter Productivity                 103.6 kg[DM]/kg[N uptake]
   Yield Productivity                       36.0 kg[yield]/kg[N uptake]

--------------------------------------------------------------------------------------------------------------

                     Maize YIELD :     5109 kg/ha    [Dry weight] 

**************************************************************************************************************

*DSSAT Cropping System Model Ver. 4.7.5.008 -release  JAN 15, 2021 21:49:57

*RUN   3        : ERiMA DCC1                MZCER047 ETMZpolo    1
 MODEL          : MZCER047 - Maize
 EXPERIMENT     : ETMZpolo SN MELKSSAL
 DATA PATH      : C:\Users\kpodo\Documents\GitHub\ET_DSS_hist_Eunjin\TEST\
 TREATMENT  1   : ERiMA DCC1                MZCER047


 CROP           : Maize            CULTIVAR : BH540-Kassie     ECOTYPE :IB0001
 STARTING DATE  : JUN 14 1993
 PLANTING DATE  : JUN 15 1993        PLANTS/m2 :  6.0     ROW SPACING :  75.cm
 WEATHER        : MELK9301
 SOIL           : ETET001_18     TEXTURE : L     -   ET000_18
 SOIL INITIAL C : DEPTH:200cm EXTR. H2O:300.3mm  NO3: 39.6kg/ha  NH4:  2.4kg/ha
 WATER BALANCE  : RAINFED
 IRRIGATION     : NOT IRRIGATED
 NITROGEN BAL.  : SOIL-N & N-UPTAKE SIMULATION; NO N-FIXATION
 N-FERTILIZER   :       60 kg/ha IN     2 APPLICATIONS
 RESIDUE/MANURE : INITIAL :     0 kg/ha ;       0 kg/ha IN     0 APPLICATIONS
 ENVIRONM. OPT. : DAYL=    0.00  SRAD=    0.00  TMAX=    0.00  TMIN=    0.00
                  RAIN=    0.00  CO2 =    0.00  DEW =    0.00  WIND=    0.00
 SIMULATION OPT : WATER   :Y  NITROGEN:Y  N-FIX:N  PHOSPH :N  PESTS  :N
                  PHOTO   :C  ET      :R  INFIL:S  HYDROL :R  SOM    :G
                  CO2     :D  NSWIT   :1  EVAP :S  SOIL   :2  STEMP  :D
 MANAGEMENT OPT : PLANTING:R  IRRIG   :N  FERT :D  RESIDUE:N  HARVEST:M
                  WEATHER :M  TILLAGE :N

*SUMMARY OF SOIL AND GENETIC INPUT PARAMETERS

   SOIL LOWER UPPER   SAT  EXTR  INIT   ROOT   BULK     pH    NO3    NH4    ORG
  DEPTH LIMIT LIMIT    SW    SW    SW   DIST   DENS                          C
   cm   cm3/cm3    cm3/cm3    cm3/cm3         g/cm3         ugN/g  ugN/g     %
-------------------------------------------------------------------------------
  0-  5 0.166 0.260 0.433 0.094 0.231   1.00   1.20   7.90  15.00   0.10   1.50
  5- 15 0.166 0.260 0.433 0.094 0.231   1.00   1.20   7.90  15.00   0.10   1.50
 15- 20 0.166 0.260 0.433 0.094 0.231   1.00   1.20   7.90  15.00   0.10   1.50
 20- 35 0.121 0.264 0.434 0.143 0.221   0.58   1.20   8.00   2.00   0.10   1.48
 35- 50 0.121 0.316 0.466 0.195 0.316   0.10   1.10   8.30   0.00   0.10   1.46
 50- 65 0.121 0.316 0.466 0.195 0.316   0.10   1.10   8.30   0.00   0.10   1.46
 65- 81 0.134 0.304 0.477 0.170 0.304   0.00   1.00   8.50   0.00   0.10   1.40
 81- 97 0.134 0.304 0.477 0.170 0.304   0.00   1.00   8.50   0.00   0.10   1.40
 97-118 0.156 0.305 0.433 0.149 0.305   0.00   1.28   8.60   0.00   0.10   0.98
118-140 0.156 0.305 0.433 0.149 0.305   0.00   1.28   8.60   0.00   0.10   0.98
140-170 0.162 0.298 0.428 0.136 0.298   0.00   1.36   8.50   0.00   0.10   0.78
170-200 0.173 0.314 0.433 0.141 0.314   0.00   1.33   8.30   0.00   0.10   0.78

TOT-200  29.8  59.8  88.9  30.0  58.6  <--cm   -  kg/ha-->   39.6    2.4 272505
SOIL ALBEDO    : 0.13      EVAPORATION LIMIT : 6.00         MIN. FACTOR  : 1.00
RUNOFF CURVE # :81.00      DRAINAGE RATE     : 0.60         FERT. FACTOR : 0.70

 Maize      CULTIVAR :CIMT01-BH540-Kassie       ECOTYPE :IB0001
 P1     : 220.10  P2     : 0.8600  P5     : 840.10
 G2     : 266.20  G3     : 10.650  PHINT  : 38.900


*SIMULATED CROP AND SOIL STATUS AT MAIN DEVELOPMENT STAGES

 RUN NO.     3     ERiMA DCC1              

        CROP GROWTH     BIOMASS         LEAF   CROP N     STRESS      STRESS                                           
   DATE  AGE STAGE        kg/ha    LAI   NUM  kg/ha  %   H2O  Nitr Phos1 Phos2  RSTG                                   
 ------  --- ----------   -----  -----  ----  ---  ---  ----  ----  ----  ----  ----                                   
 14 JUN    0 Start Sim        0   0.00   0.0    0  0.0  0.00  0.00  0.00  0.00     7
 15 JUN    0 Sowing           0   0.00   0.0    0  0.0  0.00  0.00  0.00  0.00     8
 16 JUN    1 Germinate        0   0.00   0.0    0  0.0  0.00  0.00  0.00  0.00     9
 21 JUN    6 Emergence       24   0.00   2.1    1  4.4  0.00  0.01  0.00  0.00     1
  6 JUL   21 End Juveni     116   0.24   8.0    4  3.5  0.16  0.00  0.00  0.00     2
 11 JUL   26 Floral Ini     295   0.54   9.7   11  3.9  0.00  0.00  0.00  0.00     3
 21 AUG   67 75% Silkin    6982   3.63  20.5  108  1.5  0.00  0.06  0.00  0.00     4
  5 SEP   82 Beg Gr Fil    9594   3.31  20.5  114  1.2  0.00  0.12  0.00  0.00     5
 25 OCT  132 End Gr Fil   13999   1.58  20.5  122  0.9  0.18  0.12  0.00  0.00     6
 28 OCT  135 Maturity     13999   1.58  20.5  122  0.9  0.33  0.32  0.00  0.00    10
 28 OCT  135 Harvest      13999   1.58  20.5  122  0.9  0.00  0.00  0.00  0.00    10


*MAIN GROWTH AND DEVELOPMENT VARIABLES

@     VARIABLE                                         SIMULATED     MEASURED
      --------                                         ---------     --------
      Anthesis day (dap)                                      67          -99
      Physiological maturity day (dap)                       135          -99
      Yield at harvest maturity (kg [dm]/ha)                4579          -99
      Number at maturity (no/m2)                             929          -99
      Unit wt at maturity (g [dm]/unit)                   0.4930          -99
      Number at maturity (no/unit)                         154.8          -99
      Tops weight at maturity (kg [dm]/ha)                 13999          -99
      By-product produced (stalk) at maturity (kg[dm]/ha    9484          -99
      Leaf area index, maximum                              3.67          -99
      Harvest index at maturity                            0.327          -99
      Grain N at maturity (kg/ha)                             73          -99
      Tops N at maturity (kg/ha)                             122          -99
      Stem N at maturity (kg/ha)                              49          -99
      Grain N at maturity (%)                                1.6          -99
      Tops weight at anthesis (kg [dm]/ha)                  6776          -99
      Tops N at anthesis (kg/ha)                             107          -99
      Leaf number per stem at maturity                     20.51          -99
      Emergence day (dap)                                      6          -99


*ENVIRONMENTAL AND STRESS FACTORS

 |-----Development Phase------|--------------------------------------Environment--------------------------------------|-----------------Stress-----------------|
                              |---------------Average--------------|-----Cumulative-----|--------Count of days--------|          (0=Min, 1=Max Stress)         |
                         Time  Temp  Temp  Temp Solar Photop                Evapo    Pot TMIN TMIN TMAX TMAX TMAX RAIN|----Water----|---Nitrogen--|-Phosphorus-|
                         Span   Max   Min  Mean   Rad  [day]    CO2   Rain  Trans     ET   <    <    >    >    >    >   Photo         Photo         Photo
                         days    øC    øC    øC MJ/m2     hr    ppm     mm     mm     mm  0øC  2øC 30øC 32øC 34øC  0mm  synth Growth  synth Growth  synth Growth
----------------------------------------------------------------------------------------------------------------------------------------------------------------
 Emergence-End Juvenile    15  27.4  14.4  20.9  19.9  12.48  380.0   47.9   20.6   74.2    0    0    4    0    0    1  0.043  0.163  0.001  0.004  0.000  0.000
 End Juvenil-Floral Init    5  26.5  14.5  20.5  20.9  12.47  380.0   50.1   18.5   25.7    0    0    0    0    0    2  0.000  0.000  0.000  0.000  0.000  0.000
 Floral Init-End Lf Grow   41  25.5  15.2  20.3  19.7  12.36  380.0  227.6  177.9  180.8    0    0    0    0    0   17  0.000  0.000  0.021  0.051  0.000  0.000
 End Lf Grth-Beg Grn Fil   15  24.7  14.4  19.6  20.0  12.18  380.0  133.3   64.0   64.3    0    0    0    0    0    6  0.000  0.000  0.055  0.136  0.000  0.000
 Grain Filling Phase       50  27.4  13.8  20.6  21.2  11.93  380.0   93.2  201.1  235.3    0    0    0    0    0    8  0.135  0.157  0.045  0.112  0.000  0.000
   
 Planting to Harvest      135  26.5  14.4  20.5  20.5  12.19  380.0  565.5  495.6  628.4    0    0    5    0    0   35  0.063  0.087  0.032  0.080  0.000  0.000
----------------------------------------------------------------------------------------------------------------------------------------------------------------


*Resource Productivity
 Growing season length: 135 days 

 Precipitation during growing season       565.5 mm[rain]
   Dry Matter Productivity                  2.48 kg[DM]/m3[rain]          =   24.8 kg[DM]/ha per mm[rain]
   Yield Productivity                       0.81 kg[grain yield]/m3[rain] =    8.1 kg[yield]/ha per mm[rain]

 Evapotranspiration during growing season  495.6 mm[ET]
   Dry Matter Productivity                  2.82 kg[DM]/m3[ET]            =   28.2 kg[DM]/ha per mm[ET]
   Yield Productivity                       0.92 kg[grain yield]/m3[ET]   =    9.2 kg[yield]/ha per mm[ET]

 Transpiration during growing season       379.9 mm[EP]
   Dry Matter Productivity                  3.68 kg[DM]/m3[EP]            =   36.8 kg[DM]/ha per mm[EP]
   Yield Productivity                       1.21 kg[grain yield]/m3[EP]   =   12.1 kg[yield]/ha per mm[EP]

 N applied during growing season             60. kg[N applied]/ha
   Dry Matter Productivity                 233.3 kg[DM]/kg[N applied]
   Yield Productivity                       76.3 kg[yield]/kg[N applied]

 N uptake during growing season              142 kg[N uptake]/ha
   Dry Matter Productivity                  98.6 kg[DM]/kg[N uptake]
   Yield Productivity                       32.2 kg[yield]/kg[N uptake]

--------------------------------------------------------------------------------------------------------------

                     Maize YIELD :     4579 kg/ha    [Dry weight] 

**************************************************************************************************************

*DSSAT Cropping System Model Ver. 4.7.5.008 -release  JAN 15, 2021 21:49:57

*RUN   4        : ERiMA DCC1                MZCER047 ETMZpolo    1
 MODEL          : MZCER047 - Maize
 EXPERIMENT     : ETMZpolo SN MELKSSAL
 DATA PATH      : C:\Users\kpodo\Documents\GitHub\ET_DSS_hist_Eunjin\TEST\
 TREATMENT  1   : ERiMA DCC1                MZCER047


 CROP           : Maize            CULTIVAR : BH540-Kassie     ECOTYPE :IB0001
 STARTING DATE  : JUN 14 1994
 PLANTING DATE  : JUN 15 1994        PLANTS/m2 :  6.0     ROW SPACING :  75.cm
 WEATHER        : MELK9401
 SOIL           : ETET001_18     TEXTURE : L     -   ET000_18
 SOIL INITIAL C : DEPTH:200cm EXTR. H2O:300.3mm  NO3: 39.6kg/ha  NH4:  2.4kg/ha
 WATER BALANCE  : RAINFED
 IRRIGATION     : NOT IRRIGATED
 NITROGEN BAL.  : SOIL-N & N-UPTAKE SIMULATION; NO N-FIXATION
 N-FERTILIZER   :       60 kg/ha IN     2 APPLICATIONS
 RESIDUE/MANURE : INITIAL :     0 kg/ha ;       0 kg/ha IN     0 APPLICATIONS
 ENVIRONM. OPT. : DAYL=    0.00  SRAD=    0.00  TMAX=    0.00  TMIN=    0.00
                  RAIN=    0.00  CO2 =    0.00  DEW =    0.00  WIND=    0.00
 SIMULATION OPT : WATER   :Y  NITROGEN:Y  N-FIX:N  PHOSPH :N  PESTS  :N
                  PHOTO   :C  ET      :R  INFIL:S  HYDROL :R  SOM    :G
                  CO2     :D  NSWIT   :1  EVAP :S  SOIL   :2  STEMP  :D
 MANAGEMENT OPT : PLANTING:R  IRRIG   :N  FERT :D  RESIDUE:N  HARVEST:M
                  WEATHER :M  TILLAGE :N

*SUMMARY OF SOIL AND GENETIC INPUT PARAMETERS

   SOIL LOWER UPPER   SAT  EXTR  INIT   ROOT   BULK     pH    NO3    NH4    ORG
  DEPTH LIMIT LIMIT    SW    SW    SW   DIST   DENS                          C
   cm   cm3/cm3    cm3/cm3    cm3/cm3         g/cm3         ugN/g  ugN/g     %
-------------------------------------------------------------------------------
  0-  5 0.166 0.260 0.433 0.094 0.231   1.00   1.20   7.90  15.00   0.10   1.50
  5- 15 0.166 0.260 0.433 0.094 0.231   1.00   1.20   7.90  15.00   0.10   1.50
 15- 20 0.166 0.260 0.433 0.094 0.231   1.00   1.20   7.90  15.00   0.10   1.50
 20- 35 0.121 0.264 0.434 0.143 0.221   0.58   1.20   8.00   2.00   0.10   1.48
 35- 50 0.121 0.316 0.466 0.195 0.316   0.10   1.10   8.30   0.00   0.10   1.46
 50- 65 0.121 0.316 0.466 0.195 0.316   0.10   1.10   8.30   0.00   0.10   1.46
 65- 81 0.134 0.304 0.477 0.170 0.304   0.00   1.00   8.50   0.00   0.10   1.40
 81- 97 0.134 0.304 0.477 0.170 0.304   0.00   1.00   8.50   0.00   0.10   1.40
 97-118 0.156 0.305 0.433 0.149 0.305   0.00   1.28   8.60   0.00   0.10   0.98
118-140 0.156 0.305 0.433 0.149 0.305   0.00   1.28   8.60   0.00   0.10   0.98
140-170 0.162 0.298 0.428 0.136 0.298   0.00   1.36   8.50   0.00   0.10   0.78
170-200 0.173 0.314 0.433 0.141 0.314   0.00   1.33   8.30   0.00   0.10   0.78

TOT-200  29.8  59.8  88.9  30.0  58.6  <--cm   -  kg/ha-->   39.6    2.4 272505
SOIL ALBEDO    : 0.13      EVAPORATION LIMIT : 6.00         MIN. FACTOR  : 1.00
RUNOFF CURVE # :81.00      DRAINAGE RATE     : 0.60         FERT. FACTOR : 0.70

 Maize      CULTIVAR :CIMT01-BH540-Kassie       ECOTYPE :IB0001
 P1     : 220.10  P2     : 0.8600  P5     : 840.10
 G2     : 266.20  G3     : 10.650  PHINT  : 38.900


*SIMULATED CROP AND SOIL STATUS AT MAIN DEVELOPMENT STAGES

 RUN NO.     4     ERiMA DCC1              

        CROP GROWTH     BIOMASS         LEAF   CROP N     STRESS      STRESS                                           
   DATE  AGE STAGE        kg/ha    LAI   NUM  kg/ha  %   H2O  Nitr Phos1 Phos2  RSTG                                   
 ------  --- ----------   -----  -----  ----  ---  ---  ----  ----  ----  ----  ----                                   
 14 JUN    0 Start Sim        0   0.00   0.0    0  0.0  0.00  0.00  0.00  0.00     7
 15 JUN    0 Sowing           0   0.00   0.0    0  0.0  0.00  0.00  0.00  0.00     8
 16 JUN    1 Germinate        0   0.00   0.0    0  0.0  0.00  0.00  0.00  0.00     9
 20 JUN    5 Emergence       24   0.00   2.2    1  4.4  0.00  0.01  0.00  0.00     1
  4 JUL   19 End Juveni     172   0.34   8.3    6  3.5  0.00  0.00  0.00  0.00     2
  9 JUL   24 Floral Ini     366   0.65  10.0   14  3.8  0.00  0.00  0.00  0.00     3
 19 AUG   65 75% Silkin    6574   3.34  20.8  102  1.6  0.00  0.09  0.00  0.00     4
  3 SEP   80 Beg Gr Fil    8970   2.97  20.8  108  1.2  0.00  0.16  0.00  0.00     5
  Crop mature on JD 297 due to slowed grain filling
 25 OCT  132 End Gr Fil   12094   0.90  20.8  113  0.9  0.45  0.11  0.00  0.00     6
 26 OCT  133 Maturity     12094   0.90  20.8  113  0.9  1.00  0.00  0.00  0.00    10
 26 OCT  133 Harvest      12094   0.90  20.8  113  0.9  0.00  0.00  0.00  0.00    10


*MAIN GROWTH AND DEVELOPMENT VARIABLES

@     VARIABLE                                         SIMULATED     MEASURED
      --------                                         ---------     --------
      Anthesis day (dap)                                      65          -99
      Physiological maturity day (dap)                       133          -99
      Yield at harvest maturity (kg [dm]/ha)                3822          -99
      Number at maturity (no/m2)                             890          -99
      Unit wt at maturity (g [dm]/unit)                   0.4297          -99
      Number at maturity (no/unit)                         148.3          -99
      Tops weight at maturity (kg [dm]/ha)                 12094          -99
      By-product produced (stalk) at maturity (kg[dm]/ha    8335          -99
      Leaf area index, maximum                              3.38          -99
      Harvest index at maturity                            0.316          -99
      Grain N at maturity (kg/ha)                             62          -99
      Tops N at maturity (kg/ha)                             113          -99
      Stem N at maturity (kg/ha)                              51          -99
      Grain N at maturity (%)                                1.6          -99
      Tops weight at anthesis (kg [dm]/ha)                  6341          -99
      Tops N at anthesis (kg/ha)                             101          -99
      Leaf number per stem at maturity                     20.84          -99
      Emergence day (dap)                                      5          -99


*ENVIRONMENTAL AND STRESS FACTORS

 |-----Development Phase------|--------------------------------------Environment--------------------------------------|-----------------Stress-----------------|
                              |---------------Average--------------|-----Cumulative-----|--------Count of days--------|          (0=Min, 1=Max Stress)         |
                         Time  Temp  Temp  Temp Solar Photop                Evapo    Pot TMIN TMIN TMAX TMAX TMAX RAIN|----Water----|---Nitrogen--|-Phosphorus-|
                         Span   Max   Min  Mean   Rad  [day]    CO2   Rain  Trans     ET   <    <    >    >    >    >   Photo         Photo         Photo
                         days    øC    øC    øC MJ/m2     hr    ppm     mm     mm     mm  0øC  2øC 30øC 32øC 34øC  0mm  synth Growth  synth Growth  synth Growth
----------------------------------------------------------------------------------------------------------------------------------------------------------------
 Emergence-End Juvenile    14  28.9  16.6  22.8  19.6  12.49  380.0   41.2   47.8   72.5    0    0    6    1    0    4  0.000  0.000  0.002  0.005  0.000  0.000
 End Juvenil-Floral Init    5  26.2  15.4  20.8  19.0  12.47  380.0   12.3   17.9   23.4    0    0    0    0    0    1  0.000  0.000  0.000  0.001  0.000  0.000
 Floral Init-End Lf Grow   41  24.6  15.9  20.3  18.6  12.38  380.0  259.9  168.9  169.6    0    0    0    0    0   19  0.000  0.000  0.032  0.081  0.000  0.000
 End Lf Grth-Beg Grn Fil   15  24.4  15.2  19.8  19.5  12.20  380.0   92.4   62.8   63.2    0    0    0    0    0    4  0.000  0.000  0.068  0.170  0.000  0.000
 Grain Filling Phase       52  25.8  13.7  19.8  23.6  11.94  380.0   67.3  153.2  268.5    0    0    0    0    0    4  0.410  0.431  0.046  0.114  0.000  0.000
   
 Planting to Harvest      133  25.8  15.1  20.4  20.9  12.20  380.0  484.7  460.5  629.3    0    0    8    1    0   33  0.168  0.176  0.036  0.089  0.000  0.000
----------------------------------------------------------------------------------------------------------------------------------------------------------------


*Resource Productivity
 Growing season length: 133 days 

 Precipitation during growing season       484.7 mm[rain]
   Dry Matter Productivity                  2.50 kg[DM]/m3[rain]          =   25.0 kg[DM]/ha per mm[rain]
   Yield Productivity                       0.79 kg[grain yield]/m3[rain] =    7.9 kg[yield]/ha per mm[rain]

 Evapotranspiration during growing season  460.5 mm[ET]
   Dry Matter Productivity                  2.63 kg[DM]/m3[ET]            =   26.3 kg[DM]/ha per mm[ET]
   Yield Productivity                       0.83 kg[grain yield]/m3[ET]   =    8.3 kg[yield]/ha per mm[ET]

 Transpiration during growing season       315.8 mm[EP]
   Dry Matter Productivity                  3.83 kg[DM]/m3[EP]            =   38.3 kg[DM]/ha per mm[EP]
   Yield Productivity                       1.21 kg[grain yield]/m3[EP]   =   12.1 kg[yield]/ha per mm[EP]

 N applied during growing season             60. kg[N applied]/ha
   Dry Matter Productivity                 201.6 kg[DM]/kg[N applied]
   Yield Productivity                       63.7 kg[yield]/kg[N applied]

 N uptake during growing season              129 kg[N uptake]/ha
   Dry Matter Productivity                  93.8 kg[DM]/kg[N uptake]
   Yield Productivity                       29.6 kg[yield]/kg[N uptake]

--------------------------------------------------------------------------------------------------------------

                     Maize YIELD :     3822 kg/ha    [Dry weight] 

**************************************************************************************************************

*DSSAT Cropping System Model Ver. 4.7.5.008 -release  JAN 15, 2021 21:49:57

*RUN   5        : ERiMA DCC1                MZCER047 ETMZpolo    1
 MODEL          : MZCER047 - Maize
 EXPERIMENT     : ETMZpolo SN MELKSSAL
 DATA PATH      : C:\Users\kpodo\Documents\GitHub\ET_DSS_hist_Eunjin\TEST\
 TREATMENT  1   : ERiMA DCC1                MZCER047


 CROP           : Maize            CULTIVAR : BH540-Kassie     ECOTYPE :IB0001
 STARTING DATE  : JUN 14 1995
 PLANTING DATE  : JUN 15 1995        PLANTS/m2 :  6.0     ROW SPACING :  75.cm
 WEATHER        : MELK9501
 SOIL           : ETET001_18     TEXTURE : L     -   ET000_18
 SOIL INITIAL C : DEPTH:200cm EXTR. H2O:300.3mm  NO3: 39.6kg/ha  NH4:  2.4kg/ha
 WATER BALANCE  : RAINFED
 IRRIGATION     : NOT IRRIGATED
 NITROGEN BAL.  : SOIL-N & N-UPTAKE SIMULATION; NO N-FIXATION
 N-FERTILIZER   :       60 kg/ha IN     2 APPLICATIONS
 RESIDUE/MANURE : INITIAL :     0 kg/ha ;       0 kg/ha IN     0 APPLICATIONS
 ENVIRONM. OPT. : DAYL=    0.00  SRAD=    0.00  TMAX=    0.00  TMIN=    0.00
                  RAIN=    0.00  CO2 =    0.00  DEW =    0.00  WIND=    0.00
 SIMULATION OPT : WATER   :Y  NITROGEN:Y  N-FIX:N  PHOSPH :N  PESTS  :N
                  PHOTO   :C  ET      :R  INFIL:S  HYDROL :R  SOM    :G
                  CO2     :D  NSWIT   :1  EVAP :S  SOIL   :2  STEMP  :D
 MANAGEMENT OPT : PLANTING:R  IRRIG   :N  FERT :D  RESIDUE:N  HARVEST:M
                  WEATHER :M  TILLAGE :N

*SUMMARY OF SOIL AND GENETIC INPUT PARAMETERS

   SOIL LOWER UPPER   SAT  EXTR  INIT   ROOT   BULK     pH    NO3    NH4    ORG
  DEPTH LIMIT LIMIT    SW    SW    SW   DIST   DENS                          C
   cm   cm3/cm3    cm3/cm3    cm3/cm3         g/cm3         ugN/g  ugN/g     %
-------------------------------------------------------------------------------
  0-  5 0.166 0.260 0.433 0.094 0.231   1.00   1.20   7.90  15.00   0.10   1.50
  5- 15 0.166 0.260 0.433 0.094 0.231   1.00   1.20   7.90  15.00   0.10   1.50
 15- 20 0.166 0.260 0.433 0.094 0.231   1.00   1.20   7.90  15.00   0.10   1.50
 20- 35 0.121 0.264 0.434 0.143 0.221   0.58   1.20   8.00   2.00   0.10   1.48
 35- 50 0.121 0.316 0.466 0.195 0.316   0.10   1.10   8.30   0.00   0.10   1.46
 50- 65 0.121 0.316 0.466 0.195 0.316   0.10   1.10   8.30   0.00   0.10   1.46
 65- 81 0.134 0.304 0.477 0.170 0.304   0.00   1.00   8.50   0.00   0.10   1.40
 81- 97 0.134 0.304 0.477 0.170 0.304   0.00   1.00   8.50   0.00   0.10   1.40
 97-118 0.156 0.305 0.433 0.149 0.305   0.00   1.28   8.60   0.00   0.10   0.98
118-140 0.156 0.305 0.433 0.149 0.305   0.00   1.28   8.60   0.00   0.10   0.98
140-170 0.162 0.298 0.428 0.136 0.298   0.00   1.36   8.50   0.00   0.10   0.78
170-200 0.173 0.314 0.433 0.141 0.314   0.00   1.33   8.30   0.00   0.10   0.78

TOT-200  29.8  59.8  88.9  30.0  58.6  <--cm   -  kg/ha-->   39.6    2.4 272505
SOIL ALBEDO    : 0.13      EVAPORATION LIMIT : 6.00         MIN. FACTOR  : 1.00
RUNOFF CURVE # :81.00      DRAINAGE RATE     : 0.60         FERT. FACTOR : 0.70

 Maize      CULTIVAR :CIMT01-BH540-Kassie       ECOTYPE :IB0001
 P1     : 220.10  P2     : 0.8600  P5     : 840.10
 G2     : 266.20  G3     : 10.650  PHINT  : 38.900


*SIMULATED CROP AND SOIL STATUS AT MAIN DEVELOPMENT STAGES

 RUN NO.     5     ERiMA DCC1              

        CROP GROWTH     BIOMASS         LEAF   CROP N     STRESS      STRESS                                           
   DATE  AGE STAGE        kg/ha    LAI   NUM  kg/ha  %   H2O  Nitr Phos1 Phos2  RSTG                                   
 ------  --- ----------   -----  -----  ----  ---  ---  ----  ----  ----  ----  ----                                   
 14 JUN    0 Start Sim        0   0.00   0.0    0  0.0  0.00  0.00  0.00  0.00     7
 15 JUN    0 Sowing           0   0.00   0.0    0  0.0  0.00  0.00  0.00  0.00     8
 16 JUN    1 Germinate        0   0.00   0.0    0  0.0  0.00  0.00  0.00  0.00     9
 20 JUN    5 Emergence       24   0.00   2.1    1  4.4  0.00  0.01  0.00  0.00     1
  4 JUL   19 End Juveni     173   0.35   8.3    6  3.4  0.00  0.00  0.00  0.00     2
  9 JUL   24 Floral Ini     377   0.66  10.1   14  3.8  0.00  0.00  0.00  0.00     3
 19 AUG   65 75% Silkin    6667   3.62  21.0  109  1.6  0.00  0.04  0.00  0.00     4
  2 SEP   79 Beg Gr Fil    9086   3.42  21.0  115  1.3  0.00  0.08  0.00  0.00     5
 19 OCT  126 End Gr Fil   12923   1.52  21.0  120  0.9  0.25  0.04  0.00  0.00     6
 22 OCT  129 Maturity     12923   1.52  21.0  120  0.9  0.98  0.15  0.00  0.00    10
 22 OCT  129 Harvest      12923   1.52  21.0  120  0.9  0.00  0.00  0.00  0.00    10


*MAIN GROWTH AND DEVELOPMENT VARIABLES

@     VARIABLE                                         SIMULATED     MEASURED
      --------                                         ---------     --------
      Anthesis day (dap)                                      65          -99
      Physiological maturity day (dap)                       129          -99
      Yield at harvest maturity (kg [dm]/ha)                4034          -99
      Number at maturity (no/m2)                             914          -99
      Unit wt at maturity (g [dm]/unit)                   0.4416          -99
      Number at maturity (no/unit)                         152.3          -99
      Tops weight at maturity (kg [dm]/ha)                 12923          -99
      By-product produced (stalk) at maturity (kg[dm]/ha    8951          -99
      Leaf area index, maximum                              3.65          -99
      Harvest index at maturity                            0.312          -99
      Grain N at maturity (kg/ha)                             68          -99
      Tops N at maturity (kg/ha)                             120          -99
      Stem N at maturity (kg/ha)                              51          -99
      Grain N at maturity (%)                                1.7          -99
      Tops weight at anthesis (kg [dm]/ha)                  6495          -99
      Tops N at anthesis (kg/ha)                             109          -99
      Leaf number per stem at maturity                     21.01          -99
      Emergence day (dap)                                      5          -99


*ENVIRONMENTAL AND STRESS FACTORS

 |-----Development Phase------|--------------------------------------Environment--------------------------------------|-----------------Stress-----------------|
                              |---------------Average--------------|-----Cumulative-----|--------Count of days--------|          (0=Min, 1=Max Stress)         |
                         Time  Temp  Temp  Temp Solar Photop                Evapo    Pot TMIN TMIN TMAX TMAX TMAX RAIN|----Water----|---Nitrogen--|-Phosphorus-|
                         Span   Max   Min  Mean   Rad  [day]    CO2   Rain  Trans     ET   <    <    >    >    >    >   Photo         Photo         Photo
                         days    øC    øC    øC MJ/m2     hr    ppm     mm     mm     mm  0øC  2øC 30øC 32øC 34øC  0mm  synth Growth  synth Growth  synth Growth
----------------------------------------------------------------------------------------------------------------------------------------------------------------
 Emergence-End Juvenile    14  28.8  16.0  22.4  20.0  12.49  380.0   40.1   44.0   72.7    0    0    2    0    0    4  0.000  0.000  0.002  0.006  0.000  0.000
 End Juvenil-Floral Init    5  28.1  16.2  22.2  18.0  12.47  380.0   12.2   16.5   22.8    0    0    1    0    0    1  0.000  0.000  0.000  0.001  0.000  0.000
 Floral Init-End Lf Grow   41  25.2  15.7  20.4  17.3  12.38  380.0  260.9  158.1  158.8    0    0    0    0    0   14  0.000  0.000  0.014  0.035  0.000  0.000
 End Lf Grth-Beg Grn Fil   14  25.5  15.9  20.7  19.1  12.20  380.0   91.5   58.1   58.4    0    0    0    0    0    7  0.000  0.000  0.037  0.092  0.000  0.000
 Grain Filling Phase       47  27.6  15.2  21.4  21.9  11.97  380.0   77.2  177.4  231.5    0    0    3    0    0    7  0.214  0.235  0.017  0.041  0.000  0.000
   
 Planting to Harvest      129  26.8  15.6  21.2  19.8  12.21  380.0  481.9  460.7  588.3    0    0   10    0    0   33  0.100  0.108  0.016  0.040  0.000  0.000
----------------------------------------------------------------------------------------------------------------------------------------------------------------


*Resource Productivity
 Growing season length: 129 days 

 Precipitation during growing season       481.9 mm[rain]
   Dry Matter Productivity                  2.68 kg[DM]/m3[rain]          =   26.8 kg[DM]/ha per mm[rain]
   Yield Productivity                       0.84 kg[grain yield]/m3[rain] =    8.4 kg[yield]/ha per mm[rain]

 Evapotranspiration during growing season  460.7 mm[ET]
   Dry Matter Productivity                  2.81 kg[DM]/m3[ET]            =   28.1 kg[DM]/ha per mm[ET]
   Yield Productivity                       0.88 kg[grain yield]/m3[ET]   =    8.8 kg[yield]/ha per mm[ET]

 Transpiration during growing season       334.8 mm[EP]
   Dry Matter Productivity                  3.86 kg[DM]/m3[EP]            =   38.6 kg[DM]/ha per mm[EP]
   Yield Productivity                       1.20 kg[grain yield]/m3[EP]   =   12.0 kg[yield]/ha per mm[EP]

 N applied during growing season             60. kg[N applied]/ha
   Dry Matter Productivity                 215.4 kg[DM]/kg[N applied]
   Yield Productivity                       67.2 kg[yield]/kg[N applied]

 N uptake during growing season              138 kg[N uptake]/ha
   Dry Matter Productivity                  93.6 kg[DM]/kg[N uptake]
   Yield Productivity                       29.2 kg[yield]/kg[N uptake]

--------------------------------------------------------------------------------------------------------------

                     Maize YIELD :     4034 kg/ha    [Dry weight] 

**************************************************************************************************************

*DSSAT Cropping System Model Ver. 4.7.5.008 -release  JAN 15, 2021 21:49:57

*RUN   6        : ERiMA DCC1                MZCER047 ETMZpolo    1
 MODEL          : MZCER047 - Maize
 EXPERIMENT     : ETMZpolo SN MELKSSAL
 DATA PATH      : C:\Users\kpodo\Documents\GitHub\ET_DSS_hist_Eunjin\TEST\
 TREATMENT  1   : ERiMA DCC1                MZCER047


 CROP           : Maize            CULTIVAR : BH540-Kassie     ECOTYPE :IB0001
 STARTING DATE  : JUN 13 1996
 PLANTING DATE  : JUN 14 1996        PLANTS/m2 :  6.0     ROW SPACING :  75.cm
 WEATHER        : MELK9601
 SOIL           : ETET001_18     TEXTURE : L     -   ET000_18
 SOIL INITIAL C : DEPTH:200cm EXTR. H2O:300.3mm  NO3: 39.6kg/ha  NH4:  2.4kg/ha
 WATER BALANCE  : RAINFED
 IRRIGATION     : NOT IRRIGATED
 NITROGEN BAL.  : SOIL-N & N-UPTAKE SIMULATION; NO N-FIXATION
 N-FERTILIZER   :       60 kg/ha IN     2 APPLICATIONS
 RESIDUE/MANURE : INITIAL :     0 kg/ha ;       0 kg/ha IN     0 APPLICATIONS
 ENVIRONM. OPT. : DAYL=    0.00  SRAD=    0.00  TMAX=    0.00  TMIN=    0.00
                  RAIN=    0.00  CO2 =    0.00  DEW =    0.00  WIND=    0.00
 SIMULATION OPT : WATER   :Y  NITROGEN:Y  N-FIX:N  PHOSPH :N  PESTS  :N
                  PHOTO   :C  ET      :R  INFIL:S  HYDROL :R  SOM    :G
                  CO2     :D  NSWIT   :1  EVAP :S  SOIL   :2  STEMP  :D
 MANAGEMENT OPT : PLANTING:R  IRRIG   :N  FERT :D  RESIDUE:N  HARVEST:M
                  WEATHER :M  TILLAGE :N

*SUMMARY OF SOIL AND GENETIC INPUT PARAMETERS

   SOIL LOWER UPPER   SAT  EXTR  INIT   ROOT   BULK     pH    NO3    NH4    ORG
  DEPTH LIMIT LIMIT    SW    SW    SW   DIST   DENS                          C
   cm   cm3/cm3    cm3/cm3    cm3/cm3         g/cm3         ugN/g  ugN/g     %
-------------------------------------------------------------------------------
  0-  5 0.166 0.260 0.433 0.094 0.231   1.00   1.20   7.90  15.00   0.10   1.50
  5- 15 0.166 0.260 0.433 0.094 0.231   1.00   1.20   7.90  15.00   0.10   1.50
 15- 20 0.166 0.260 0.433 0.094 0.231   1.00   1.20   7.90  15.00   0.10   1.50
 20- 35 0.121 0.264 0.434 0.143 0.221   0.58   1.20   8.00   2.00   0.10   1.48
 35- 50 0.121 0.316 0.466 0.195 0.316   0.10   1.10   8.30   0.00   0.10   1.46
 50- 65 0.121 0.316 0.466 0.195 0.316   0.10   1.10   8.30   0.00   0.10   1.46
 65- 81 0.134 0.304 0.477 0.170 0.304   0.00   1.00   8.50   0.00   0.10   1.40
 81- 97 0.134 0.304 0.477 0.170 0.304   0.00   1.00   8.50   0.00   0.10   1.40
 97-118 0.156 0.305 0.433 0.149 0.305   0.00   1.28   8.60   0.00   0.10   0.98
118-140 0.156 0.305 0.433 0.149 0.305   0.00   1.28   8.60   0.00   0.10   0.98
140-170 0.162 0.298 0.428 0.136 0.298   0.00   1.36   8.50   0.00   0.10   0.78
170-200 0.173 0.314 0.433 0.141 0.314   0.00   1.33   8.30   0.00   0.10   0.78

TOT-200  29.8  59.8  88.9  30.0  58.6  <--cm   -  kg/ha-->   39.6    2.4 272505
SOIL ALBEDO    : 0.13      EVAPORATION LIMIT : 6.00         MIN. FACTOR  : 1.00
RUNOFF CURVE # :81.00      DRAINAGE RATE     : 0.60         FERT. FACTOR : 0.70

 Maize      CULTIVAR :CIMT01-BH540-Kassie       ECOTYPE :IB0001
 P1     : 220.10  P2     : 0.8600  P5     : 840.10
 G2     : 266.20  G3     : 10.650  PHINT  : 38.900


*SIMULATED CROP AND SOIL STATUS AT MAIN DEVELOPMENT STAGES

 RUN NO.     6     ERiMA DCC1              

        CROP GROWTH     BIOMASS         LEAF   CROP N     STRESS      STRESS                                           
   DATE  AGE STAGE        kg/ha    LAI   NUM  kg/ha  %   H2O  Nitr Phos1 Phos2  RSTG                                   
 ------  --- ----------   -----  -----  ----  ---  ---  ----  ----  ----  ----  ----                                   
 13 JUN    0 Start Sim        0   0.00   0.0    0  0.0  0.00  0.00  0.00  0.00     7
 14 JUN    0 Sowing           0   0.00   0.0    0  0.0  0.00  0.00  0.00  0.00     8
 15 JUN    1 Germinate        0   0.00   0.0    0  0.0  0.00  0.00  0.00  0.00     9
 20 JUN    6 Emergence       24   0.00   2.0    1  4.4  0.00  0.01  0.00  0.00     1
  5 JUL   21 End Juveni     160   0.32   8.1    6  3.5  0.00  0.00  0.00  0.00     2
 10 JUL   26 Floral Ini     333   0.60   9.9   13  3.9  0.05  0.00  0.00  0.00     3
 21 AUG   68 75% Silkin    6741   3.49  20.8  106  1.6  0.00  0.06  0.00  0.00     4
  4 SEP   82 Beg Gr Fil    9139   3.22  20.8  111  1.2  0.00  0.11  0.00  0.00     5
 25 OCT  133 End Gr Fil   12465   1.15  20.8  115  0.9  0.40  0.08  0.00  0.00     6
 28 OCT  136 Maturity     12465   1.15  20.8  115  0.9  1.00  0.10  0.00  0.00    10
 28 OCT  136 Harvest      12465   1.15  20.8  115  0.9  0.00  0.00  0.00  0.00    10


*MAIN GROWTH AND DEVELOPMENT VARIABLES

@     VARIABLE                                         SIMULATED     MEASURED
      --------                                         ---------     --------
      Anthesis day (dap)                                      68          -99
      Physiological maturity day (dap)                       136          -99
      Yield at harvest maturity (kg [dm]/ha)                3925          -99
      Number at maturity (no/m2)                             897          -99
      Unit wt at maturity (g [dm]/unit)                   0.4375          -99
      Number at maturity (no/unit)                         149.5          -99
      Tops weight at maturity (kg [dm]/ha)                 12465          -99
      By-product produced (stalk) at maturity (kg[dm]/ha    8603          -99
      Leaf area index, maximum                              3.52          -99
      Harvest index at maturity                            0.315          -99
      Grain N at maturity (kg/ha)                             66          -99
      Tops N at maturity (kg/ha)                             115          -99
      Stem N at maturity (kg/ha)                              50          -99
      Grain N at maturity (%)                                1.7          -99
      Tops weight at anthesis (kg [dm]/ha)                  6637          -99
      Tops N at anthesis (kg/ha)                             105          -99
      Leaf number per stem at maturity                     20.80          -99
      Emergence day (dap)                                      6          -99


*ENVIRONMENTAL AND STRESS FACTORS

 |-----Development Phase------|--------------------------------------Environment--------------------------------------|-----------------Stress-----------------|
                              |---------------Average--------------|-----Cumulative-----|--------Count of days--------|          (0=Min, 1=Max Stress)         |
                         Time  Temp  Temp  Temp Solar Photop                Evapo    Pot TMIN TMIN TMAX TMAX TMAX RAIN|----Water----|---Nitrogen--|-Phosphorus-|
                         Span   Max   Min  Mean   Rad  [day]    CO2   Rain  Trans     ET   <    <    >    >    >    >   Photo         Photo         Photo
                         days    øC    øC    øC MJ/m2     hr    ppm     mm     mm     mm  0øC  2øC 30øC 32øC 34øC  0mm  synth Growth  synth Growth  synth Growth
----------------------------------------------------------------------------------------------------------------------------------------------------------------
 Emergence-End Juvenile    15  27.8  14.6  21.2  20.5  12.48  380.0    0.0   22.9   77.2    0    0    1    0    0    0  0.000  0.000  0.002  0.006  0.000  0.000
 End Juvenil-Floral Init    5  26.1  15.5  20.8  19.5  12.47  380.0   36.3   15.0   23.7    0    0    0    0    0    3  0.000  0.052  0.000  0.000  0.000  0.000
 Floral Init-End Lf Grow   42  24.9  15.1  20.0  18.3  12.36  380.0  267.0  169.7  170.4    0    0    0    0    0   17  0.000  0.000  0.023  0.056  0.000  0.000
 End Lf Grth-Beg Grn Fil   14  25.7  15.3  20.5  19.1  12.18  380.0   16.7   58.0   58.3    0    0    0    0    0    1  0.000  0.000  0.051  0.127  0.000  0.000
 Grain Filling Phase       51  26.8  13.9  20.4  21.5  11.93  380.0   89.9  155.2  242.5    0    0    1    0    0    7  0.355  0.376  0.030  0.075  0.000  0.000
   
 Planting to Harvest      136  26.2  14.6  20.4  19.8  12.19  380.0  462.7  444.0  611.8    0    0    2    0    0   31  0.155  0.165  0.025  0.061  0.000  0.000
----------------------------------------------------------------------------------------------------------------------------------------------------------------


*Resource Productivity
 Growing season length: 136 days 

 Precipitation during growing season       462.7 mm[rain]
   Dry Matter Productivity                  2.69 kg[DM]/m3[rain]          =   26.9 kg[DM]/ha per mm[rain]
   Yield Productivity                       0.85 kg[grain yield]/m3[rain] =    8.5 kg[yield]/ha per mm[rain]

 Evapotranspiration during growing season  444.0 mm[ET]
   Dry Matter Productivity                  2.81 kg[DM]/m3[ET]            =   28.1 kg[DM]/ha per mm[ET]
   Yield Productivity                       0.88 kg[grain yield]/m3[ET]   =    8.8 kg[yield]/ha per mm[ET]

 Transpiration during growing season       317.9 mm[EP]
   Dry Matter Productivity                  3.92 kg[DM]/m3[EP]            =   39.2 kg[DM]/ha per mm[EP]
   Yield Productivity                       1.23 kg[grain yield]/m3[EP]   =   12.3 kg[yield]/ha per mm[EP]

 N applied during growing season             60. kg[N applied]/ha
   Dry Matter Productivity                 207.8 kg[DM]/kg[N applied]
   Yield Productivity                       65.4 kg[yield]/kg[N applied]

 N uptake during growing season              132 kg[N uptake]/ha
   Dry Matter Productivity                  94.4 kg[DM]/kg[N uptake]
   Yield Productivity                       29.7 kg[yield]/kg[N uptake]

--------------------------------------------------------------------------------------------------------------

                     Maize YIELD :     3925 kg/ha    [Dry weight] 

**************************************************************************************************************

*DSSAT Cropping System Model Ver. 4.7.5.008 -release  JAN 15, 2021 21:49:57

*RUN   7        : ERiMA DCC1                MZCER047 ETMZpolo    1
 MODEL          : MZCER047 - Maize
 EXPERIMENT     : ETMZpolo SN MELKSSAL
 DATA PATH      : C:\Users\kpodo\Documents\GitHub\ET_DSS_hist_Eunjin\TEST\
 TREATMENT  1   : ERiMA DCC1                MZCER047


 CROP           : Maize            CULTIVAR : BH540-Kassie     ECOTYPE :IB0001
 STARTING DATE  : JUN 14 1997
 PLANTING DATE  : JUN 15 1997        PLANTS/m2 :  6.0     ROW SPACING :  75.cm
 WEATHER        : MELK9701
 SOIL           : ETET001_18     TEXTURE : L     -   ET000_18
 SOIL INITIAL C : DEPTH:200cm EXTR. H2O:300.3mm  NO3: 39.6kg/ha  NH4:  2.4kg/ha
 WATER BALANCE  : RAINFED
 IRRIGATION     : NOT IRRIGATED
 NITROGEN BAL.  : SOIL-N & N-UPTAKE SIMULATION; NO N-FIXATION
 N-FERTILIZER   :       60 kg/ha IN     2 APPLICATIONS
 RESIDUE/MANURE : INITIAL :     0 kg/ha ;       0 kg/ha IN     0 APPLICATIONS
 ENVIRONM. OPT. : DAYL=    0.00  SRAD=    0.00  TMAX=    0.00  TMIN=    0.00
                  RAIN=    0.00  CO2 =    0.00  DEW =    0.00  WIND=    0.00
 SIMULATION OPT : WATER   :Y  NITROGEN:Y  N-FIX:N  PHOSPH :N  PESTS  :N
                  PHOTO   :C  ET      :R  INFIL:S  HYDROL :R  SOM    :G
                  CO2     :D  NSWIT   :1  EVAP :S  SOIL   :2  STEMP  :D
 MANAGEMENT OPT : PLANTING:R  IRRIG   :N  FERT :D  RESIDUE:N  HARVEST:M
                  WEATHER :M  TILLAGE :N

*SUMMARY OF SOIL AND GENETIC INPUT PARAMETERS

   SOIL LOWER UPPER   SAT  EXTR  INIT   ROOT   BULK     pH    NO3    NH4    ORG
  DEPTH LIMIT LIMIT    SW    SW    SW   DIST   DENS                          C
   cm   cm3/cm3    cm3/cm3    cm3/cm3         g/cm3         ugN/g  ugN/g     %
-------------------------------------------------------------------------------
  0-  5 0.166 0.260 0.433 0.094 0.231   1.00   1.20   7.90  15.00   0.10   1.50
  5- 15 0.166 0.260 0.433 0.094 0.231   1.00   1.20   7.90  15.00   0.10   1.50
 15- 20 0.166 0.260 0.433 0.094 0.231   1.00   1.20   7.90  15.00   0.10   1.50
 20- 35 0.121 0.264 0.434 0.143 0.221   0.58   1.20   8.00   2.00   0.10   1.48
 35- 50 0.121 0.316 0.466 0.195 0.316   0.10   1.10   8.30   0.00   0.10   1.46
 50- 65 0.121 0.316 0.466 0.195 0.316   0.10   1.10   8.30   0.00   0.10   1.46
 65- 81 0.134 0.304 0.477 0.170 0.304   0.00   1.00   8.50   0.00   0.10   1.40
 81- 97 0.134 0.304 0.477 0.170 0.304   0.00   1.00   8.50   0.00   0.10   1.40
 97-118 0.156 0.305 0.433 0.149 0.305   0.00   1.28   8.60   0.00   0.10   0.98
118-140 0.156 0.305 0.433 0.149 0.305   0.00   1.28   8.60   0.00   0.10   0.98
140-170 0.162 0.298 0.428 0.136 0.298   0.00   1.36   8.50   0.00   0.10   0.78
170-200 0.173 0.314 0.433 0.141 0.314   0.00   1.33   8.30   0.00   0.10   0.78

TOT-200  29.8  59.8  88.9  30.0  58.6  <--cm   -  kg/ha-->   39.6    2.4 272505
SOIL ALBEDO    : 0.13      EVAPORATION LIMIT : 6.00         MIN. FACTOR  : 1.00
RUNOFF CURVE # :81.00      DRAINAGE RATE     : 0.60         FERT. FACTOR : 0.70

 Maize      CULTIVAR :CIMT01-BH540-Kassie       ECOTYPE :IB0001
 P1     : 220.10  P2     : 0.8600  P5     : 840.10
 G2     : 266.20  G3     : 10.650  PHINT  : 38.900


*SIMULATED CROP AND SOIL STATUS AT MAIN DEVELOPMENT STAGES

 RUN NO.     7     ERiMA DCC1              

        CROP GROWTH     BIOMASS         LEAF   CROP N     STRESS      STRESS                                           
   DATE  AGE STAGE        kg/ha    LAI   NUM  kg/ha  %   H2O  Nitr Phos1 Phos2  RSTG                                   
 ------  --- ----------   -----  -----  ----  ---  ---  ----  ----  ----  ----  ----                                   
 14 JUN    0 Start Sim        0   0.00   0.0    0  0.0  0.00  0.00  0.00  0.00     7
 15 JUN    0 Sowing           0   0.00   0.0    0  0.0  0.00  0.00  0.00  0.00     8
 16 JUN    1 Germinate        0   0.00   0.0    0  0.0  0.00  0.00  0.00  0.00     9
 21 JUN    6 Emergence       24   0.00   2.1    1  4.4  0.00  0.01  0.00  0.00     1
  6 JUL   21 End Juveni     170   0.34   8.3    6  3.4  0.00  0.00  0.00  0.00     2
 11 JUL   26 Floral Ini     331   0.59   9.8   13  3.8  0.00  0.00  0.00  0.00     3
 20 AUG   66 75% Silkin    6593   3.28  20.9   98  1.5  0.00  0.10  0.00  0.00     4
  2 SEP   79 Beg Gr Fil    8936   2.90  20.9  104  1.2  0.00  0.19  0.00  0.00     5
  Crop mature on JD 288 due to slowed grain filling
 16 OCT  123 End Gr Fil   11680   1.00  20.9  108  0.9  0.48  0.12  0.00  0.00     6
 17 OCT  124 Maturity     11680   1.00  20.9  108  0.9  1.00  0.00  0.00  0.00    10
 17 OCT  124 Harvest      11680   1.00  20.9  108  0.9  0.00  0.00  0.00  0.00    10


*MAIN GROWTH AND DEVELOPMENT VARIABLES

@     VARIABLE                                         SIMULATED     MEASURED
      --------                                         ---------     --------
      Anthesis day (dap)                                      66          -99
      Physiological maturity day (dap)                       124          -99
      Yield at harvest maturity (kg [dm]/ha)                3396          -99
      Number at maturity (no/m2)                             940          -99
      Unit wt at maturity (g [dm]/unit)                   0.3613          -99
      Number at maturity (no/unit)                         156.6          -99
      Tops weight at maturity (kg [dm]/ha)                 11680          -99
      By-product produced (stalk) at maturity (kg[dm]/ha    8346          -99
      Leaf area index, maximum                              3.32          -99
      Harvest index at maturity                            0.291          -99
      Grain N at maturity (kg/ha)                             54          -99
      Tops N at maturity (kg/ha)                             108          -99
      Stem N at maturity (kg/ha)                              53          -99
      Grain N at maturity (%)                                1.6          -99
      Tops weight at anthesis (kg [dm]/ha)                  6395          -99
      Tops N at anthesis (kg/ha)                              97          -99
      Leaf number per stem at maturity                     20.85          -99
      Emergence day (dap)                                      6          -99


*ENVIRONMENTAL AND STRESS FACTORS

 |-----Development Phase------|--------------------------------------Environment--------------------------------------|-----------------Stress-----------------|
                              |---------------Average--------------|-----Cumulative-----|--------Count of days--------|          (0=Min, 1=Max Stress)         |
                         Time  Temp  Temp  Temp Solar Photop                Evapo    Pot TMIN TMIN TMAX TMAX TMAX RAIN|----Water----|---Nitrogen--|-Phosphorus-|
                         Span   Max   Min  Mean   Rad  [day]    CO2   Rain  Trans     ET   <    <    >    >    >    >   Photo         Photo         Photo
                         days    øC    øC    øC MJ/m2     hr    ppm     mm     mm     mm  0øC  2øC 30øC 32øC 34øC  0mm  synth Growth  synth Growth  synth Growth
----------------------------------------------------------------------------------------------------------------------------------------------------------------
 Emergence-End Juvenile    15  27.9  15.2  21.5  19.2  12.48  380.0   99.4   67.0   74.7    0    0    3    1    0    5  0.000  0.000  0.002  0.006  0.000  0.000
 End Juvenil-Floral Init    5  25.2  14.7  20.0  15.9  12.47  380.0   45.2   19.3   19.3    0    0    0    0    0    4  0.000  0.000  0.001  0.002  0.000  0.000
 Floral Init-End Lf Grow   40  26.4  15.2  20.8  19.4  12.37  380.0  205.2  170.2  175.1    0    0    1    0    0   10  0.000  0.000  0.036  0.089  0.000  0.000
 End Lf Grth-Beg Grn Fil   13  26.2  15.3  20.8  21.6  12.20  380.0   60.1   61.5   61.8    0    0    0    0    0    2  0.000  0.000  0.079  0.198  0.000  0.000
 Grain Filling Phase       44  28.8  14.5  21.6  22.9  11.98  380.0   82.3  137.1  230.1    0    0   12    6    0    5  0.420  0.454  0.049  0.122  0.000  0.000
   
 Planting to Harvest      124  27.4  15.0  21.2  20.7  12.23  380.0  514.3  487.3  597.2    0    0   18    7    0   29  0.157  0.169  0.037  0.094  0.000  0.000
----------------------------------------------------------------------------------------------------------------------------------------------------------------


*Resource Productivity
 Growing season length: 124 days 

 Precipitation during growing season       514.3 mm[rain]
   Dry Matter Productivity                  2.27 kg[DM]/m3[rain]          =   22.7 kg[DM]/ha per mm[rain]
   Yield Productivity                       0.66 kg[grain yield]/m3[rain] =    6.6 kg[yield]/ha per mm[rain]

 Evapotranspiration during growing season  487.3 mm[ET]
   Dry Matter Productivity                  2.40 kg[DM]/m3[ET]            =   24.0 kg[DM]/ha per mm[ET]
   Yield Productivity                       0.70 kg[grain yield]/m3[ET]   =    7.0 kg[yield]/ha per mm[ET]

 Transpiration during growing season       299.4 mm[EP]
   Dry Matter Productivity                  3.90 kg[DM]/m3[EP]            =   39.0 kg[DM]/ha per mm[EP]
   Yield Productivity                       1.13 kg[grain yield]/m3[EP]   =   11.3 kg[yield]/ha per mm[EP]

 N applied during growing season             60. kg[N applied]/ha
   Dry Matter Productivity                 194.7 kg[DM]/kg[N applied]
   Yield Productivity                       56.6 kg[yield]/kg[N applied]

 N uptake during growing season              120 kg[N uptake]/ha
   Dry Matter Productivity                  97.3 kg[DM]/kg[N uptake]
   Yield Productivity                       28.3 kg[yield]/kg[N uptake]

--------------------------------------------------------------------------------------------------------------

                     Maize YIELD :     3396 kg/ha    [Dry weight] 

**************************************************************************************************************

*DSSAT Cropping System Model Ver. 4.7.5.008 -release  JAN 15, 2021 21:49:57

*RUN   8        : ERiMA DCC1                MZCER047 ETMZpolo    1
 MODEL          : MZCER047 - Maize
 EXPERIMENT     : ETMZpolo SN MELKSSAL
 DATA PATH      : C:\Users\kpodo\Documents\GitHub\ET_DSS_hist_Eunjin\TEST\
 TREATMENT  1   : ERiMA DCC1                MZCER047


 CROP           : Maize            CULTIVAR : BH540-Kassie     ECOTYPE :IB0001
 STARTING DATE  : JUN 14 1998
 PLANTING DATE  : JUN 15 1998        PLANTS/m2 :  6.0     ROW SPACING :  75.cm
 WEATHER        : MELK9801
 SOIL           : ETET001_18     TEXTURE : L     -   ET000_18
 SOIL INITIAL C : DEPTH:200cm EXTR. H2O:300.3mm  NO3: 39.6kg/ha  NH4:  2.4kg/ha
 WATER BALANCE  : RAINFED
 IRRIGATION     : NOT IRRIGATED
 NITROGEN BAL.  : SOIL-N & N-UPTAKE SIMULATION; NO N-FIXATION
 N-FERTILIZER   :       60 kg/ha IN     2 APPLICATIONS
 RESIDUE/MANURE : INITIAL :     0 kg/ha ;       0 kg/ha IN     0 APPLICATIONS
 ENVIRONM. OPT. : DAYL=    0.00  SRAD=    0.00  TMAX=    0.00  TMIN=    0.00
                  RAIN=    0.00  CO2 =    0.00  DEW =    0.00  WIND=    0.00
 SIMULATION OPT : WATER   :Y  NITROGEN:Y  N-FIX:N  PHOSPH :N  PESTS  :N
                  PHOTO   :C  ET      :R  INFIL:S  HYDROL :R  SOM    :G
                  CO2     :D  NSWIT   :1  EVAP :S  SOIL   :2  STEMP  :D
 MANAGEMENT OPT : PLANTING:R  IRRIG   :N  FERT :D  RESIDUE:N  HARVEST:M
                  WEATHER :M  TILLAGE :N

*SUMMARY OF SOIL AND GENETIC INPUT PARAMETERS

   SOIL LOWER UPPER   SAT  EXTR  INIT   ROOT   BULK     pH    NO3    NH4    ORG
  DEPTH LIMIT LIMIT    SW    SW    SW   DIST   DENS                          C
   cm   cm3/cm3    cm3/cm3    cm3/cm3         g/cm3         ugN/g  ugN/g     %
-------------------------------------------------------------------------------
  0-  5 0.166 0.260 0.433 0.094 0.231   1.00   1.20   7.90  15.00   0.10   1.50
  5- 15 0.166 0.260 0.433 0.094 0.231   1.00   1.20   7.90  15.00   0.10   1.50
 15- 20 0.166 0.260 0.433 0.094 0.231   1.00   1.20   7.90  15.00   0.10   1.50
 20- 35 0.121 0.264 0.434 0.143 0.221   0.58   1.20   8.00   2.00   0.10   1.48
 35- 50 0.121 0.316 0.466 0.195 0.316   0.10   1.10   8.30   0.00   0.10   1.46
 50- 65 0.121 0.316 0.466 0.195 0.316   0.10   1.10   8.30   0.00   0.10   1.46
 65- 81 0.134 0.304 0.477 0.170 0.304   0.00   1.00   8.50   0.00   0.10   1.40
 81- 97 0.134 0.304 0.477 0.170 0.304   0.00   1.00   8.50   0.00   0.10   1.40
 97-118 0.156 0.305 0.433 0.149 0.305   0.00   1.28   8.60   0.00   0.10   0.98
118-140 0.156 0.305 0.433 0.149 0.305   0.00   1.28   8.60   0.00   0.10   0.98
140-170 0.162 0.298 0.428 0.136 0.298   0.00   1.36   8.50   0.00   0.10   0.78
170-200 0.173 0.314 0.433 0.141 0.314   0.00   1.33   8.30   0.00   0.10   0.78

TOT-200  29.8  59.8  88.9  30.0  58.6  <--cm   -  kg/ha-->   39.6    2.4 272505
SOIL ALBEDO    : 0.13      EVAPORATION LIMIT : 6.00         MIN. FACTOR  : 1.00
RUNOFF CURVE # :81.00      DRAINAGE RATE     : 0.60         FERT. FACTOR : 0.70

 Maize      CULTIVAR :CIMT01-BH540-Kassie       ECOTYPE :IB0001
 P1     : 220.10  P2     : 0.8600  P5     : 840.10
 G2     : 266.20  G3     : 10.650  PHINT  : 38.900


*SIMULATED CROP AND SOIL STATUS AT MAIN DEVELOPMENT STAGES

 RUN NO.     8     ERiMA DCC1              

        CROP GROWTH     BIOMASS         LEAF   CROP N     STRESS      STRESS                                           
   DATE  AGE STAGE        kg/ha    LAI   NUM  kg/ha  %   H2O  Nitr Phos1 Phos2  RSTG                                   
 ------  --- ----------   -----  -----  ----  ---  ---  ----  ----  ----  ----  ----                                   
 14 JUN    0 Start Sim        0   0.00   0.0    0  0.0  0.00  0.00  0.00  0.00     7
 15 JUN    0 Sowing           0   0.00   0.0    0  0.0  0.00  0.00  0.00  0.00     8
 16 JUN    1 Germinate        0   0.00   0.0    0  0.0  0.00  0.00  0.00  0.00     9
 20 JUN    5 Emergence       24   0.00   2.1    1  4.4  0.00  0.01  0.00  0.00     1
  4 JUL   19 End Juveni     194   0.38   8.5    7  3.4  0.00  0.00  0.00  0.00     2
  9 JUL   24 Floral Ini     438   0.75  10.5   17  3.8  0.00  0.00  0.00  0.00     3
 20 AUG   66 75% Silkin    6766   3.63  21.9  108  1.6  0.00  0.05  0.00  0.00     4
  2 SEP   79 Beg Gr Fil    8739   3.37  21.9  112  1.3  0.00  0.11  0.00  0.00     5
 23 OCT  130 End Gr Fil   13381   1.63  21.9  122  0.9  0.00  0.11  0.00  0.00     6
 27 OCT  134 Maturity     13381   1.63  21.9  122  0.9  0.00  0.35  0.00  0.00    10
 27 OCT  134 Harvest      13381   1.63  21.9  122  0.9  0.00  0.00  0.00  0.00    10


*MAIN GROWTH AND DEVELOPMENT VARIABLES

@     VARIABLE                                         SIMULATED     MEASURED
      --------                                         ---------     --------
      Anthesis day (dap)                                      66          -99
      Physiological maturity day (dap)                       134          -99
      Yield at harvest maturity (kg [dm]/ha)                4736          -99
      Number at maturity (no/m2)                             872          -99
      Unit wt at maturity (g [dm]/unit)                   0.5432          -99
      Number at maturity (no/unit)                         145.3          -99
      Tops weight at maturity (kg [dm]/ha)                 13381          -99
      By-product produced (stalk) at maturity (kg[dm]/ha    8710          -99
      Leaf area index, maximum                              3.66          -99
      Harvest index at maturity                            0.354          -99
      Grain N at maturity (kg/ha)                             74          -99
      Tops N at maturity (kg/ha)                             122          -99
      Stem N at maturity (kg/ha)                              48          -99
      Grain N at maturity (%)                                1.6          -99
      Tops weight at anthesis (kg [dm]/ha)                  6552          -99
      Tops N at anthesis (kg/ha)                             108          -99
      Leaf number per stem at maturity                     21.88          -99
      Emergence day (dap)                                      5          -99


*ENVIRONMENTAL AND STRESS FACTORS

 |-----Development Phase------|--------------------------------------Environment--------------------------------------|-----------------Stress-----------------|
                              |---------------Average--------------|-----Cumulative-----|--------Count of days--------|          (0=Min, 1=Max Stress)         |
                         Time  Temp  Temp  Temp Solar Photop                Evapo    Pot TMIN TMIN TMAX TMAX TMAX RAIN|----Water----|---Nitrogen--|-Phosphorus-|
                         Span   Max   Min  Mean   Rad  [day]    CO2   Rain  Trans     ET   <    <    >    >    >    >   Photo         Photo         Photo
                         days    øC    øC    øC MJ/m2     hr    ppm     mm     mm     mm  0øC  2øC 30øC 32øC 34øC  0mm  synth Growth  synth Growth  synth Growth
----------------------------------------------------------------------------------------------------------------------------------------------------------------
 Emergence-End Juvenile    14  30.2  16.1  23.1  20.6  12.49  380.0   32.5   30.7   75.8    0    0    9    3    0    3  0.000  0.000  0.002  0.005  0.000  0.000
 End Juvenil-Floral Init    5  29.0  16.1  22.6  19.4  12.47  380.0   31.9   24.7   24.7    0    0    1    0    0    3  0.000  0.000  0.001  0.003  0.000  0.000
 Floral Init-End Lf Grow   42  25.7  15.5  20.6  16.8  12.37  380.0  332.9  157.5  158.2    0    0    0    0    0   21  0.000  0.000  0.020  0.050  0.000  0.000
 End Lf Grth-Beg Grn Fil   13  25.6  15.9  20.7  18.1  12.20  380.0   97.4   51.2   51.5    0    0    0    0    0    4  0.000  0.000  0.051  0.128  0.000  0.000
 Grain Filling Phase       51  26.3  14.3  20.3  19.3  11.95  380.0  262.1  213.6  216.6    0    0    0    0    0   11  0.000  0.000  0.040  0.100  0.000  0.000
   
 Planting to Harvest      134  26.7  15.0  20.9  18.7  12.20  380.0  756.8  496.7  573.0    0    0   12    5    0   42  0.000  0.000  0.031  0.077  0.000  0.000
----------------------------------------------------------------------------------------------------------------------------------------------------------------


*Resource Productivity
 Growing season length: 134 days 

 Precipitation during growing season       756.8 mm[rain]
   Dry Matter Productivity                  1.77 kg[DM]/m3[rain]          =   17.7 kg[DM]/ha per mm[rain]
   Yield Productivity                       0.63 kg[grain yield]/m3[rain] =    6.3 kg[yield]/ha per mm[rain]

 Evapotranspiration during growing season  496.7 mm[ET]
   Dry Matter Productivity                  2.69 kg[DM]/m3[ET]            =   26.9 kg[DM]/ha per mm[ET]
   Yield Productivity                       0.95 kg[grain yield]/m3[ET]   =    9.5 kg[yield]/ha per mm[ET]

 Transpiration during growing season       378.6 mm[EP]
   Dry Matter Productivity                  3.53 kg[DM]/m3[EP]            =   35.3 kg[DM]/ha per mm[EP]
   Yield Productivity                       1.25 kg[grain yield]/m3[EP]   =   12.5 kg[yield]/ha per mm[EP]

 N applied during growing season             60. kg[N applied]/ha
   Dry Matter Productivity                 223.0 kg[DM]/kg[N applied]
   Yield Productivity                       78.9 kg[yield]/kg[N applied]

 N uptake during growing season              141 kg[N uptake]/ha
   Dry Matter Productivity                  94.9 kg[DM]/kg[N uptake]
   Yield Productivity                       33.6 kg[yield]/kg[N uptake]

--------------------------------------------------------------------------------------------------------------

                     Maize YIELD :     4736 kg/ha    [Dry weight] 

**************************************************************************************************************

*DSSAT Cropping System Model Ver. 4.7.5.008 -release  JAN 15, 2021 21:49:57

*RUN   9        : ERiMA DCC1                MZCER047 ETMZpolo    1
 MODEL          : MZCER047 - Maize
 EXPERIMENT     : ETMZpolo SN MELKSSAL
 DATA PATH      : C:\Users\kpodo\Documents\GitHub\ET_DSS_hist_Eunjin\TEST\
 TREATMENT  1   : ERiMA DCC1                MZCER047


 CROP           : Maize            CULTIVAR : BH540-Kassie     ECOTYPE :IB0001
 STARTING DATE  : JUN 14 1999
 PLANTING DATE  : JUN 15 1999        PLANTS/m2 :  6.0     ROW SPACING :  75.cm
 WEATHER        : MELK9901
 SOIL           : ETET001_18     TEXTURE : L     -   ET000_18
 SOIL INITIAL C : DEPTH:200cm EXTR. H2O:300.3mm  NO3: 39.6kg/ha  NH4:  2.4kg/ha
 WATER BALANCE  : RAINFED
[...]

**************************************************************************************************************

*DSSAT Cropping System Model Ver. 4.7.5.008 -release  JAN 15, 2021 21:49:57

*RUN  27        : ERiMA DCC1                MZCER047 ETMZpolo    1
 MODEL          : MZCER047 - Maize
 EXPERIMENT     : ETMZpolo SN MELKSSAL
 DATA PATH      : C:\Users\kpodo\Documents\GitHub\ET_DSS_hist_Eunjin\TEST\
 TREATMENT  1   : ERiMA DCC1                MZCER047


 CROP           : Maize            CULTIVAR : BH540-Kassie     ECOTYPE :IB0001
 STARTING DATE  : JUN 14 2017
 PLANTING DATE  : JUN 15 2017        PLANTS/m2 :  6.0     ROW SPACING :  75.cm
 WEATHER        : MELK1701
 SOIL           : ETET001_18     TEXTURE : L     -   ET000_18
 SOIL INITIAL C : DEPTH:200cm EXTR. H2O:300.3mm  NO3: 39.6kg/ha  NH4:  2.4kg/ha
 WATER BALANCE  : RAINFED
 IRRIGATION     : NOT IRRIGATED
 NITROGEN BAL.  : SOIL-N & N-UPTAKE SIMULATION; NO N-FIXATION
 N-FERTILIZER   :       60 kg/ha IN     2 APPLICATIONS
 RESIDUE/MANURE : INITIAL :     0 kg/ha ;       0 kg/ha IN     0 APPLICATIONS
 ENVIRONM. OPT. : DAYL=    0.00  SRAD=    0.00  TMAX=    0.00  TMIN=    0.00
                  RAIN=    0.00  CO2 =    0.00  DEW =    0.00  WIND=    0.00
 SIMULATION OPT : WATER   :Y  NITROGEN:Y  N-FIX:N  PHOSPH :N  PESTS  :N
                  PHOTO   :C  ET      :R  INFIL:S  HYDROL :R  SOM    :G
                  CO2     :D  NSWIT   :1  EVAP :S  SOIL   :2  STEMP  :D
 MANAGEMENT OPT : PLANTING:R  IRRIG   :N  FERT :D  RESIDUE:N  HARVEST:M
                  WEATHER :M  TILLAGE :N

*SUMMARY OF SOIL AND GENETIC INPUT PARAMETERS

   SOIL LOWER UPPER   SAT  EXTR  INIT   ROOT   BULK     pH    NO3    NH4    ORG
  DEPTH LIMIT LIMIT    SW    SW    SW   DIST   DENS                          C
   cm   cm3/cm3    cm3/cm3    cm3/cm3         g/cm3         ugN/g  ugN/g     %
-------------------------------------------------------------------------------
  0-  5 0.166 0.260 0.433 0.094 0.231   1.00   1.20   7.90  15.00   0.10   1.50
  5- 15 0.166 0.260 0.433 0.094 0.231   1.00   1.20   7.90  15.00   0.10   1.50
 15- 20 0.166 0.260 0.433 0.094 0.231   1.00   1.20   7.90  15.00   0.10   1.50
 20- 35 0.121 0.264 0.434 0.143 0.221   0.58   1.20   8.00   2.00   0.10   1.48
 35- 50 0.121 0.316 0.466 0.195 0.316   0.10   1.10   8.30   0.00   0.10   1.46
 50- 65 0.121 0.316 0.466 0.195 0.316   0.10   1.10   8.30   0.00   0.10   1.46
 65- 81 0.134 0.304 0.477 0.170 0.304   0.00   1.00   8.50   0.00   0.10   1.40
 81- 97 0.134 0.304 0.477 0.170 0.304   0.00   1.00   8.50   0.00   0.10   1.40
 97-118 0.156 0.305 0.433 0.149 0.305   0.00   1.28   8.60   0.00   0.10   0.98
118-140 0.156 0.305 0.433 0.149 0.305   0.00   1.28   8.60   0.00   0.10   0.98
140-170 0.162 0.298 0.428 0.136 0.298   0.00   1.36   8.50   0.00   0.10   0.78
170-200 0.173 0.314 0.433 0.141 0.314   0.00   1.33   8.30   0.00   0.10   0.78

TOT-200  29.8  59.8  88.9  30.0  58.6  <--cm   -  kg/ha-->   39.6    2.4 272505
SOIL ALBEDO    : 0.13      EVAPORATION LIMIT : 6.00         MIN. FACTOR  : 1.00
RUNOFF CURVE # :81.00      DRAINAGE RATE     : 0.60         FERT. FACTOR : 0.70

 Maize      CULTIVAR :CIMT01-BH540-Kassie       ECOTYPE :IB0001
 P1     : 220.10  P2     : 0.8600  P5     : 840.10
 G2     : 266.20  G3     : 10.650  PHINT  : 38.900


*SIMULATED CROP AND SOIL STATUS AT MAIN DEVELOPMENT STAGES

 RUN NO.    27     ERiMA DCC1              

        CROP GROWTH     BIOMASS         LEAF   CROP N     STRESS      STRESS                                           
   DATE  AGE STAGE        kg/ha    LAI   NUM  kg/ha  %   H2O  Nitr Phos1 Phos2  RSTG                                   
 ------  --- ----------   -----  -----  ----  ---  ---  ----  ----  ----  ----  ----                                   
 14 JUN    0 Start Sim        0   0.00   0.0    0  0.0  0.00  0.00  0.00  0.00     7
 15 JUN    0 Sowing           0   0.00   0.0    0  0.0  0.00  0.00  0.00  0.00     8
 16 JUN    1 Germinate        0   0.00   0.0    0  0.0  0.00  0.00  0.00  0.00     9
 21 JUN    6 Emergence       24   0.00   2.0    1  4.4  0.00  0.01  0.00  0.00     1
  7 JUL   22 End Juveni     155   0.32   8.1    5  3.5  0.01  0.00  0.00  0.00     2
 12 JUL   27 Floral Ini     329   0.59   9.8   13  3.8  0.00  0.00  0.00  0.00     3
 25 AUG   71 75% Silkin    6748   3.38  20.5  101  1.5  0.00  0.07  0.00  0.00     4
  9 SEP   86 Beg Gr Fil    9186   2.97  20.5  107  1.2  0.00  0.17  0.00  0.00     5
  Crop mature on JD 307 due to slowed grain filling
  4 NOV  142 End Gr Fil   12505   0.79  20.5  113  0.9  0.44  0.16  0.00  0.00     6
  5 NOV  143 Maturity     12505   0.79  20.5  113  0.9  1.00  0.08  0.00  0.00    10
  5 NOV  143 Harvest      12505   0.79  20.5  113  0.9  0.00  0.00  0.00  0.00    10


*MAIN GROWTH AND DEVELOPMENT VARIABLES

@     VARIABLE                                         SIMULATED     MEASURED
      --------                                         ---------     --------
      Anthesis day (dap)                                      71          -99
      Physiological maturity day (dap)                       143          -99
      Yield at harvest maturity (kg [dm]/ha)                4128          -99
      Number at maturity (no/m2)                             890          -99
      Unit wt at maturity (g [dm]/unit)                   0.4637          -99
      Number at maturity (no/unit)                         148.4          -99
      Tops weight at maturity (kg [dm]/ha)                 12505          -99
      By-product produced (stalk) at maturity (kg[dm]/ha    8440          -99
      Leaf area index, maximum                              3.43          -99
      Harvest index at maturity                            0.330          -99
      Grain N at maturity (kg/ha)                             65          -99
      Tops N at maturity (kg/ha)                             113          -99
      Stem N at maturity (kg/ha)                              48          -99
      Grain N at maturity (%)                                1.6          -99
      Tops weight at anthesis (kg [dm]/ha)                  6562          -99
      Tops N at anthesis (kg/ha)                             101          -99
      Leaf number per stem at maturity                     20.55          -99
      Emergence day (dap)                                      6          -99


*ENVIRONMENTAL AND STRESS FACTORS

 |-----Development Phase------|--------------------------------------Environment--------------------------------------|-----------------Stress-----------------|
                              |---------------Average--------------|-----Cumulative-----|--------Count of days--------|          (0=Min, 1=Max Stress)         |
                         Time  Temp  Temp  Temp Solar Photop                Evapo    Pot TMIN TMIN TMAX TMAX TMAX RAIN|----Water----|---Nitrogen--|-Phosphorus-|
                         Span   Max   Min  Mean   Rad  [day]    CO2   Rain  Trans     ET   <    <    >    >    >    >   Photo         Photo         Photo
                         days    øC    øC    øC MJ/m2     hr    ppm     mm     mm     mm  0øC  2øC 30øC 32øC 34øC  0mm  synth Growth  synth Growth  synth Growth
----------------------------------------------------------------------------------------------------------------------------------------------------------------
 Emergence-End Juvenile    16  26.5  14.4  20.5  19.4  12.48  380.0   55.0   45.2   77.7    0    0    0    0    0    6  0.000  0.011  0.002  0.006  0.000  0.000
 End Juvenil-Floral Init    5  25.6  14.5  20.0  18.7  12.46  380.0   52.2   22.8   22.8    0    0    0    0    0    2  0.000  0.000  0.000  0.001  0.000  0.000
 Floral Init-End Lf Grow   44  24.7  14.4  19.5  18.1  12.35  380.0  248.2  172.1  175.1    0    0    0    0    0   22  0.000  0.000  0.027  0.068  0.000  0.000
 End Lf Grth-Beg Grn Fil   15  24.9  14.0  19.5  19.6  12.15  380.0  133.3   63.0   63.3    0    0    0    0    0    9  0.000  0.000  0.073  0.184  0.000  0.000
 Grain Filling Phase       56  25.7  12.4  19.0  22.3  11.88  380.0   56.3  157.8  270.6    0    0    0    0    0    4  0.408  0.427  0.064  0.160  0.000  0.000
   
 Planting to Harvest      143  25.4  13.5  19.5  20.2  12.17  380.0  545.0  465.7  646.6    0    0    0    0    0   43  0.167  0.175  0.042  0.104  0.000  0.000
----------------------------------------------------------------------------------------------------------------------------------------------------------------


*Resource Productivity
 Growing season length: 143 days 

 Precipitation during growing season       545.0 mm[rain]
   Dry Matter Productivity                  2.29 kg[DM]/m3[rain]          =   22.9 kg[DM]/ha per mm[rain]
   Yield Productivity                       0.76 kg[grain yield]/m3[rain] =    7.6 kg[yield]/ha per mm[rain]

 Evapotranspiration during growing season  465.7 mm[ET]
   Dry Matter Productivity                  2.68 kg[DM]/m3[ET]            =   26.8 kg[DM]/ha per mm[ET]
   Yield Productivity                       0.89 kg[grain yield]/m3[ET]   =    8.9 kg[yield]/ha per mm[ET]

 Transpiration during growing season       321.7 mm[EP]
   Dry Matter Productivity                  3.89 kg[DM]/m3[EP]            =   38.9 kg[DM]/ha per mm[EP]
   Yield Productivity                       1.28 kg[grain yield]/m3[EP]   =   12.8 kg[yield]/ha per mm[EP]

 N applied during growing season             60. kg[N applied]/ha
   Dry Matter Productivity                 208.4 kg[DM]/kg[N applied]
   Yield Productivity                       68.8 kg[yield]/kg[N applied]

 N uptake during growing season              128 kg[N uptake]/ha
   Dry Matter Productivity                  97.7 kg[DM]/kg[N uptake]
   Yield Productivity                       32.2 kg[yield]/kg[N uptake]

--------------------------------------------------------------------------------------------------------------

                     Maize YIELD :     4128 kg/ha    [Dry weight] 

**************************************************************************************************************

*DSSAT Cropping System Model Ver. 4.7.5.008 -release  JAN 15, 2021 21:49:57

*RUN  28        : ERiMA DCC1                MZCER047 ETMZpolo    1
 MODEL          : MZCER047 - Maize
 EXPERIMENT     : ETMZpolo SN MELKSSAL
 DATA PATH      : C:\Users\kpodo\Documents\GitHub\ET_DSS_hist_Eunjin\TEST\
 TREATMENT  1   : ERiMA DCC1                MZCER047


 CROP           : Maize            CULTIVAR : BH540-Kassie     ECOTYPE :IB0001
 STARTING DATE  : JUN 14 2018
 PLANTING DATE  : JUN 15 2018        PLANTS/m2 :  6.0     ROW SPACING :  75.cm
 WEATHER        : MELK1801
 SOIL           : ETET001_18     TEXTURE : L     -   ET000_18
 SOIL INITIAL C : DEPTH:200cm EXTR. H2O:300.3mm  NO3: 39.6kg/ha  NH4:  2.4kg/ha
 WATER BALANCE  : RAINFED
 IRRIGATION     : NOT IRRIGATED
 NITROGEN BAL.  : SOIL-N & N-UPTAKE SIMULATION; NO N-FIXATION
 N-FERTILIZER   :       60 kg/ha IN     2 APPLICATIONS
 RESIDUE/MANURE : INITIAL :     0 kg/ha ;       0 kg/ha IN     0 APPLICATIONS
 ENVIRONM. OPT. : DAYL=    0.00  SRAD=    0.00  TMAX=    0.00  TMIN=    0.00
                  RAIN=    0.00  CO2 =    0.00  DEW =    0.00  WIND=    0.00
 SIMULATION OPT : WATER   :Y  NITROGEN:Y  N-FIX:N  PHOSPH :N  PESTS  :N
                  PHOTO   :C  ET      :R  INFIL:S  HYDROL :R  SOM    :G
                  CO2     :D  NSWIT   :1  EVAP :S  SOIL   :2  STEMP  :D
 MANAGEMENT OPT : PLANTING:R  IRRIG   :N  FERT :D  RESIDUE:N  HARVEST:M
                  WEATHER :M  TILLAGE :N

*SUMMARY OF SOIL AND GENETIC INPUT PARAMETERS

   SOIL LOWER UPPER   SAT  EXTR  INIT   ROOT   BULK     pH    NO3    NH4    ORG
  DEPTH LIMIT LIMIT    SW    SW    SW   DIST   DENS                          C
   cm   cm3/cm3    cm3/cm3    cm3/cm3         g/cm3         ugN/g  ugN/g     %
-------------------------------------------------------------------------------
  0-  5 0.166 0.260 0.433 0.094 0.231   1.00   1.20   7.90  15.00   0.10   1.50
  5- 15 0.166 0.260 0.433 0.094 0.231   1.00   1.20   7.90  15.00   0.10   1.50
 15- 20 0.166 0.260 0.433 0.094 0.231   1.00   1.20   7.90  15.00   0.10   1.50
 20- 35 0.121 0.264 0.434 0.143 0.221   0.58   1.20   8.00   2.00   0.10   1.48
 35- 50 0.121 0.316 0.466 0.195 0.316   0.10   1.10   8.30   0.00   0.10   1.46
 50- 65 0.121 0.316 0.466 0.195 0.316   0.10   1.10   8.30   0.00   0.10   1.46
 65- 81 0.134 0.304 0.477 0.170 0.304   0.00   1.00   8.50   0.00   0.10   1.40
 81- 97 0.134 0.304 0.477 0.170 0.304   0.00   1.00   8.50   0.00   0.10   1.40
 97-118 0.156 0.305 0.433 0.149 0.305   0.00   1.28   8.60   0.00   0.10   0.98
118-140 0.156 0.305 0.433 0.149 0.305   0.00   1.28   8.60   0.00   0.10   0.98
140-170 0.162 0.298 0.428 0.136 0.298   0.00   1.36   8.50   0.00   0.10   0.78
170-200 0.173 0.314 0.433 0.141 0.314   0.00   1.33   8.30   0.00   0.10   0.78

TOT-200  29.8  59.8  88.9  30.0  58.6  <--cm   -  kg/ha-->   39.6    2.4 272505
SOIL ALBEDO    : 0.13      EVAPORATION LIMIT : 6.00         MIN. FACTOR  : 1.00
RUNOFF CURVE # :81.00      DRAINAGE RATE     : 0.60         FERT. FACTOR : 0.70

 Maize      CULTIVAR :CIMT01-BH540-Kassie       ECOTYPE :IB0001
 P1     : 220.10  P2     : 0.8600  P5     : 840.10
 G2     : 266.20  G3     : 10.650  PHINT  : 38.900


*SIMULATED CROP AND SOIL STATUS AT MAIN DEVELOPMENT STAGES

 RUN NO.    28     ERiMA DCC1              

        CROP GROWTH     BIOMASS         LEAF   CROP N     STRESS      STRESS                                           
   DATE  AGE STAGE        kg/ha    LAI   NUM  kg/ha  %   H2O  Nitr Phos1 Phos2  RSTG                                   
 ------  --- ----------   -----  -----  ----  ---  ---  ----  ----  ----  ----  ----                                   
 14 JUN    0 Start Sim        0   0.00   0.0    0  0.0  0.00  0.00  0.00  0.00     7
 15 JUN    0 Sowing           0   0.00   0.0    0  0.0  0.00  0.00  0.00  0.00     8
 16 JUN    1 Germinate        0   0.00   0.0    0  0.0  0.00  0.00  0.00  0.00     9
 21 JUN    6 Emergence       24   0.00   2.0    1  4.4  0.00  0.01  0.00  0.00     1
  8 JUL   23 End Juveni     158   0.32   8.1    6  3.6  0.00  0.00  0.00  0.00     2
 13 JUL   28 Floral Ini     320   0.58   9.7   12  3.8  0.00  0.00  0.00  0.00     3
 27 AUG   73 75% Silkin    6972   3.60  20.3  112  1.6  0.00  0.05  0.00  0.00     4
 12 SEP   89 Beg Gr Fil    9905   3.34  20.3  118  1.2  0.00  0.09  0.00  0.00     5
  Crop mature on JD 296 due to slowed grain filling
 24 OCT  131 End Gr Fil   12282   1.17  20.3  120  1.0  0.53  0.03  0.00  0.00     6
 25 OCT  132 Maturity     12282   1.17  20.3  120  1.0  1.00  0.00  0.00  0.00    10
 25 OCT  132 Harvest      12282   1.17  20.3  120  1.0  0.00  0.00  0.00  0.00    10


*MAIN GROWTH AND DEVELOPMENT VARIABLES

@     VARIABLE                                         SIMULATED     MEASURED
      --------                                         ---------     --------
      Anthesis day (dap)                                      73          -99
      Physiological maturity day (dap)                       132          -99
      Yield at harvest maturity (kg [dm]/ha)                3103          -99
      Number at maturity (no/m2)                             940          -99
      Unit wt at maturity (g [dm]/unit)                   0.3301          -99
      Number at maturity (no/unit)                         156.7          -99
      Tops weight at maturity (kg [dm]/ha)                 12282          -99
      By-product produced (stalk) at maturity (kg[dm]/ha    9243          -99
      Leaf area index, maximum                              3.64          -99
      Harvest index at maturity                            0.253          -99
      Grain N at maturity (kg/ha)                             54          -99
      Tops N at maturity (kg/ha)                             120          -99
      Stem N at maturity (kg/ha)                              66          -99
      Grain N at maturity (%)                                1.7          -99
      Tops weight at anthesis (kg [dm]/ha)                  6826          -99
      Tops N at anthesis (kg/ha)                             111          -99
      Leaf number per stem at maturity                     20.28          -99
      Emergence day (dap)                                      6          -99


*ENVIRONMENTAL AND STRESS FACTORS

 |-----Development Phase------|--------------------------------------Environment--------------------------------------|-----------------Stress-----------------|
                              |---------------Average--------------|-----Cumulative-----|--------Count of days--------|          (0=Min, 1=Max Stress)         |
                         Time  Temp  Temp  Temp Solar Photop                Evapo    Pot TMIN TMIN TMAX TMAX TMAX RAIN|----Water----|---Nitrogen--|-Phosphorus-|
                         Span   Max   Min  Mean   Rad  [day]    CO2   Rain  Trans     ET   <    <    >    >    >    >   Photo         Photo         Photo
                         days    øC    øC    øC MJ/m2     hr    ppm     mm     mm     mm  0øC  2øC 30øC 32øC 34øC  0mm  synth Growth  synth Growth  synth Growth
----------------------------------------------------------------------------------------------------------------------------------------------------------------
 Emergence-End Juvenile    17  25.6  13.9  19.7  19.8  12.48  380.0   84.0   68.5   83.5    0    0    0    0    0    8  0.000  0.000  0.002  0.005  0.000  0.000
 End Juvenil-Floral Init    5  24.7  14.1  19.4  18.4  12.46  380.0   10.1   22.1   22.1    0    0    0    0    0    1  0.000  0.000  0.000  0.000  0.000  0.000
 Floral Init-End Lf Grow   45  24.3  13.8  19.0  18.0  12.34  380.0  177.4  166.1  176.5    0    0    0    0    0   16  0.000  0.000  0.019  0.047  0.000  0.000
 End Lf Grth-Beg Grn Fil   16  24.3  13.5  18.9  20.1  12.14  380.0   52.8   67.6   68.0    0    0    0    0    0    3  0.000  0.000  0.042  0.106  0.000  0.000
 Grain Filling Phase       42  25.3  12.2  18.7  22.6  11.91  380.0   57.8  109.0  202.8    0    0    0    0    0    4  0.482  0.508  0.013  0.032  0.000  0.000
   
 Planting to Harvest      132  24.9  13.3  19.1  20.1  12.20  380.0  399.2  461.1  589.6    0    0    0    0    0   35  0.161  0.169  0.016  0.040  0.000  0.000
----------------------------------------------------------------------------------------------------------------------------------------------------------------


*Resource Productivity
 Growing season length: 132 days 

 Precipitation during growing season       399.2 mm[rain]
   Dry Matter Productivity                  3.08 kg[DM]/m3[rain]          =   30.8 kg[DM]/ha per mm[rain]
   Yield Productivity                       0.78 kg[grain yield]/m3[rain] =    7.8 kg[yield]/ha per mm[rain]

 Evapotranspiration during growing season  461.1 mm[ET]
   Dry Matter Productivity                  2.66 kg[DM]/m3[ET]            =   26.6 kg[DM]/ha per mm[ET]
   Yield Productivity                       0.67 kg[grain yield]/m3[ET]   =    6.7 kg[yield]/ha per mm[ET]

 Transpiration during growing season       289.5 mm[EP]
   Dry Matter Productivity                  4.24 kg[DM]/m3[EP]            =   42.4 kg[DM]/ha per mm[EP]
   Yield Productivity                       1.07 kg[grain yield]/m3[EP]   =   10.7 kg[yield]/ha per mm[EP]

 N applied during growing season             60. kg[N applied]/ha
   Dry Matter Productivity                 204.7 kg[DM]/kg[N applied]
   Yield Productivity                       51.7 kg[yield]/kg[N applied]

 N uptake during growing season              136 kg[N uptake]/ha
   Dry Matter Productivity                  90.3 kg[DM]/kg[N uptake]
   Yield Productivity                       22.8 kg[yield]/kg[N uptake]

--------------------------------------------------------------------------------------------------------------

                     Maize YIELD :     3103 kg/ha    [Dry weight] 

**************************************************************************************************************
