*PLANT N OUTPUT FILE

*DSSAT Cropping System Model Ver. 4.7.5.008 -release  JAN 15, 2021 21:49:57

*RUN   1        : ERiMA DCC1                MZCER047 ETMZpolo    1
 MODEL          : MZCER047 - Maize
 EXPERIMENT     : ETMZpolo SN MELKSSAL
 DATA PATH      : C:\Users\kpodo\Documents\GitHub\ET_DSS_hist_Eunjin\TEST\
 TREATMENT  1   : ERiMA DCC1                MZCER047
  
@YEAR DOY   DAS   DAP   CNAD   GNAD   VNAD   GN%D   VN%D   NUPC   LNAD   SNAD   LN%D   SN%D   RN%D   SNN0C   SNN1C
 1991 166     2     0    0.0    0.0    0.0   0.00   0.00    0.0    0.0    0.0    0.0   0.00   0.00    0.00    0.00
 1991 167     3     1    0.0    0.0    0.0   0.00   0.00    0.0    0.0    0.0    0.0   0.00   0.00    0.00    0.00
 1991 168     4     2    0.0    0.0    0.0   0.00   0.00    0.0    0.0    0.0    0.0   0.00   0.00    0.00    0.00
 1991 169     5     3    0.0    0.0    0.0   0.00   0.00    0.0    0.0    0.0    0.0   0.00   0.00    0.00    0.00
 1991 170     6     4    0.0    0.0    0.0   0.00   0.00    0.0    0.0    0.0    0.0   0.00   0.00    0.00    0.00
 1991 171     7     5    1.1    0.0    1.1   0.00   4.40    0.0    0.5    0.5    4.4   4.40   2.20    0.00    0.00
 1991 172     8     6    1.1    0.0    1.1   0.00   4.40    0.0    0.5    0.5    4.4   4.40   2.16    0.00    0.00
 1991 173     9     7    1.1    0.0    1.1   0.00   4.40    0.0    0.5    0.5    4.4   4.40   2.07    0.00    0.00
 1991 174    10     8    1.1    0.0    1.1   0.00   4.40    0.0    0.5    0.5    4.4   4.40   1.94    0.00    0.00
 1991 175    11     9    1.1    0.0    1.1   0.00   4.40    0.0    0.5    0.5    4.4   4.40   1.78    0.00    0.00
 1991 176    12    10    1.1    0.0    1.1   0.00   4.19    0.0    0.6    0.5    4.2   4.19   1.55    0.00    0.00
 1991 177    13    11    1.1    0.0    1.1   0.00   3.54    0.0    0.6    0.4    3.5   3.54   1.42    0.00    0.00
 1991 178    14    12    1.3    0.0    1.3   0.00   3.52    0.2    0.8    0.4    3.5   3.52   1.23    0.00    0.00
 1991 179    15    13    1.5    0.0    1.5   0.00   3.69    0.5    1.1    0.4    3.7   3.69   1.44    0.00    0.00
 1991 180    16    14    1.7    0.0    1.7   0.00   3.32    0.7    1.3    0.4    3.3   3.32   1.27    0.00    0.00
 1991 181    17    15    2.1    0.0    2.1   0.00   3.52    1.2    1.6    0.4    3.5   3.52   1.47    0.00    0.01
 1991 182    18    16    2.4    0.0    2.4   0.00   3.27    1.5    2.0    0.4    3.3   3.27   1.27    0.00    0.01
 1991 183    19    17    2.9    0.0    2.9   0.00   3.25    2.1    2.5    0.4    3.2   3.25   1.26    0.00    0.01
 1991 184    20    18    3.6    0.0    3.6   0.00   3.24    2.9    3.2    0.4    3.2   3.24   1.37    0.00    0.01
 1991 185    21    19    4.3    0.0    4.3   0.00   3.32    3.8    3.9    0.4    3.3   3.32   1.36    0.00    0.02
 1991 186    22    20    5.1    0.0    5.1   0.00   3.27    4.5    4.7    0.4    3.3   3.27   1.23    0.00    0.02
 1991 187    23    21    6.0    0.0    6.0   0.00   3.43    5.7    5.6    0.4    3.4   3.43   1.41    0.00    0.02
 1991 188    24    22    6.8    0.0    6.8   0.00   3.22    6.7    6.5    0.4    3.2   3.22   1.35    0.00    0.03
 1991 189    25    23    8.1    0.0    8.1   0.00   3.27    7.9    7.7    0.4    3.3   3.27   1.21    0.00    0.03
 1991 190    26    24   11.9    0.0   11.9   0.00   4.06   11.9   11.4    0.5    4.1   4.06   1.30    0.00    0.04
 1991 191    27    25   13.4    0.0   13.4   0.00   3.96   13.8   12.9    0.5    4.0   3.96   1.40    0.00    0.05
 1991 192    28    26   14.9    0.0   14.9   0.00   3.84   15.3   14.4    0.5    3.8   3.84   1.24    0.00    0.05
 1991 193    29    27   16.6    0.0   16.6   0.00   3.74   17.5   16.1    0.5    3.7   3.74   1.41    0.00    0.06
 1991 194    30    28   18.7    0.0   18.7   0.00   3.70   19.9   18.2    0.5    3.7   3.70   1.33    0.00    0.07
 1991 195    31    29   20.4    0.0   20.4   0.00   3.62   22.1   19.8    0.6    3.6   3.62   1.36    0.00    0.09
 1991 196    32    30   22.5    0.0   22.5   0.00   3.58   24.5   21.8    0.7    3.6   3.58   1.33    0.00    0.10
 1991 197    33    31   24.7    0.0   24.7   0.00   3.54   27.1   23.9    0.8    3.5   3.54   1.30    0.00    0.12
 1991 198    34    32   27.5    0.0   27.5   0.00   3.52   30.4   26.4    1.0    3.5   3.52   1.31    0.00    0.13
 1991 199    35    33   30.4    0.0   30.4   0.00   3.48   32.9   29.0    1.4    3.5   3.48   1.15    0.00    0.15
 1991 200    36    34   33.2    0.0   33.2   0.00   3.43   36.9   31.4    1.7    3.4   3.43   1.31    0.00    0.17
 1991 201    37    35   36.3    0.0   36.3   0.00   3.39   40.1   34.1    2.2    3.4   3.39   1.22    0.00    0.20
 1991 202    38    36   39.6    0.0   39.6   0.00   3.35   43.3   36.8    2.9    3.3   3.35   1.14    0.00    0.22
 1991 203    39    37   43.0    0.0   43.0   0.00   3.30   47.0   39.3    3.6    3.3   3.30   1.18    0.00    0.25
 1991 204    40    38   46.5    0.0   46.5   0.00   3.26   51.2   42.0    4.5    3.3   3.26   1.21    0.00    0.27
 1991 205    41    39   50.7    0.0   50.7   0.00   3.23   55.8   45.0    5.7    3.2   3.23   1.21    0.00    0.30
 1991 206    42    40   55.1    0.0   55.1   0.00   3.19   60.6   48.0    7.1    3.2   3.19   1.20    0.00    0.33
 1991 207    43    41   60.1    0.0   60.1   0.00   3.15   65.7   51.2    8.8    3.1   3.15   1.16    0.00    0.36
 1991 208    44    42   63.1    0.0   63.1   0.00   3.08   68.5   53.0   10.1    3.1   3.08   1.09    0.00    0.40
 1991 209    45    43   64.7    0.0   64.7   0.00   2.93   70.4   53.3   11.4    2.9   2.93   1.09    0.00    0.43
 1991 210    46    44   66.1    0.0   66.1   0.00   2.78   71.9   53.4   12.7    2.8   2.78   1.07    0.00    0.46
 1991 211    47    45   75.6    0.0   75.6   0.00   2.96   82.5   59.9   15.7    3.0   2.96   1.16    0.00    0.49
 1991 212    48    46   80.7    0.0   80.7   0.00   2.94   87.8   62.6   18.1    2.9   2.94   1.15    0.00    0.53
 1991 213    49    47   85.5    0.0   85.5   0.00   2.91   93.2   65.0   20.6    2.9   2.91   1.17    0.00    0.57
 1991 214    50    48   91.4    0.0   91.4   0.00   2.89   99.5   67.8   23.6    2.9   2.89   1.16    0.00    0.61
 1991 215    51    49   95.9    0.0   95.9   0.00   2.80  103.9   72.3   23.6    2.8   2.80   1.12    0.00    0.66
 1991 216    52    50   98.5    0.0   98.5   0.00   2.65  106.5   72.5   25.9    2.6   2.65   1.10    0.00    0.70
 1991 217    53    51  100.3    0.0  100.3   0.00   2.53  108.3   72.1   28.1    2.5   2.53   1.09    0.00    0.74
 1991 218    54    52  101.5    0.0  101.5   0.00   2.44  109.6   71.5   30.0    2.4   2.44   1.08    0.00    0.79
 1991 219    55    53  102.6    0.0  102.6   0.00   2.33  110.7   70.5   32.1    2.3   2.33   1.07    0.00    0.83
 1991 220    56    54  103.7    0.0  103.7   0.00   2.24  111.9   69.7   34.0    2.2   2.24   1.05    0.00    0.87
 1991 221    57    55  104.7    0.0  104.7   0.00   2.17  113.0   69.0   35.7    2.2   2.17   1.02    0.00    0.92
 1991 222    58    56  105.6    0.0  105.6   0.00   2.11  113.9   68.3   37.3    2.1   2.11   1.01    0.00    0.96
 1991 223    59    57  106.4    0.0  106.4   0.00   2.05  114.8   67.7   38.7    2.1   2.05   1.01    0.00    1.00
 1991 224    60    58  107.2    0.0  107.2   0.00   2.00  115.7   67.2   40.0    2.0   2.00   0.97    0.00    1.05
 1991 225    61    59  108.0    0.0  108.0   0.00   1.96  116.6   66.8   41.1    2.0   1.96   0.95    0.00    1.09
 1991 226    62    60  108.7    0.0  108.7   0.00   1.93  117.4   66.6   42.1    1.9   1.93   0.90    0.00    1.14
 1991 227    63    61  109.4    0.0  109.4   0.00   1.90  118.2   66.4   43.0    1.9   1.90   0.90    0.00    1.18
 1991 228    64    62  110.0    0.0  110.0   0.00   1.87  118.8   66.3   43.7    1.9   1.87   0.88    0.00    1.22
 1991 229    65    63  110.5    0.0  110.5   0.00   1.85  119.4   66.1   44.3    1.8   1.85   0.88    0.00    1.27
 1991 230    66    64  111.0    0.0  111.0   0.00   1.82  120.0   66.0   45.0    1.8   1.82   0.88    0.00    1.31
 1991 231    67    65  111.6    0.0  111.6   0.00   1.80  120.7   66.3   45.3    1.8   1.80   0.86    0.00    1.36
 1991 232    68    66  112.2    0.0  112.2   0.00   1.80  121.3   66.7   45.4    1.8   1.80   0.84    0.00    1.40
 1991 233    69    67  112.5    0.0  112.5   0.00   1.77  121.8   66.6   45.9    1.8   1.77   0.81    0.00    1.45
 1991 234    70    68  113.0    0.0  113.0   0.00   1.75  122.4   66.5   46.5    1.7   1.75   0.77    0.00    1.50
 1991 235    71    69  113.5    0.0  113.5   0.00   1.74  123.0   65.4   48.1    1.7   1.74   0.78    0.00    1.54
 1991 236    72    70  114.0    0.0  114.0   0.00   1.73  123.6   64.5   49.5    1.7   1.73   0.78    0.00    1.59
 1991 237    73    71  114.4    0.0  114.4   0.00   1.72  124.0   63.3   51.1    1.7   1.72   0.78    0.00    1.63
 1991 238    74    72  114.8    0.0  114.8   0.00   1.71  124.5   62.1   52.7    1.7   1.71   0.78    0.00    1.68
 1991 239    75    73  115.3    0.0  115.3   0.00   1.70  125.1   60.9   54.3    1.7   1.70   0.78    0.00    1.73
 1991 240    76    74  115.7    0.0  115.7   0.00   1.70  125.6   60.1   55.6    1.7   1.70   0.78    0.00    1.78
 1991 241    77    75  116.1    0.0  116.1   0.00   1.70  126.2   59.3   56.8    1.7   1.70   0.78    0.00    1.82
 1991 242    78    76  116.6    0.0  116.6   0.00   1.70  126.7   58.3   58.2    1.7   1.70   0.79    0.00    1.87
 1991 243    79    77  117.0    0.0  117.0   0.00   1.70  127.3   57.5   59.5    1.7   1.70   0.79    0.00    1.92
 1991 244    80    78  117.5    0.0  117.5   0.00   1.71  127.8   56.7   60.8    1.7   1.71   0.79    0.00    1.97
 1991 245    81    79  117.8    0.0  117.8   0.00   1.71  128.2   55.8   62.0    1.7   1.71   0.79    0.00    2.02
 1991 246    82    80  118.2    0.0  118.2   0.00   1.72  128.7   54.9   63.3    1.7   1.72   0.80    0.00    2.06
 1991 247    83    81  118.6    0.0  118.6   0.00   1.72  129.3   53.9   64.7    1.7   1.72   0.80    0.00    2.11
 1991 248    84    82  119.0    0.0  119.0   0.00   1.73  129.8   53.0   65.9    1.7   1.73   0.80    0.00    2.16
 1991 249    85    83  119.3    1.6  117.7   1.61   1.71  130.3   52.5   65.2    1.7   1.71   0.78    0.00    2.21
 1991 250    86    84  119.7    3.2  116.5   1.60   1.69  130.9   51.9   64.5    1.7   1.69   0.77    0.00    2.26
 1991 251    87    85  120.0    4.8  115.2   1.60   1.67  131.4   51.3   63.8    1.7   1.67   0.75    0.00    2.31
 1991 252    88    86  120.3    6.4  113.9   1.61   1.66  131.9   50.8   63.1    1.7   1.66   0.74    0.00    2.37
 1991 253    89    87  120.5    8.0  112.5   1.61   1.64  132.3   50.2   62.4    1.6   1.64   0.73    0.00    2.42
 1991 254    90    88  120.8    9.6  111.2   1.61   1.62  132.9   49.6   61.6    1.6   1.62   0.73    0.00    2.47
 1991 255    91    89  121.1   11.2  109.9   1.61   1.60  133.3   49.0   60.9    1.6   1.60   0.72    0.00    2.53
 1991 256    92    90  121.3   12.9  108.4   1.61   1.58  133.7   48.3   60.1    1.6   1.58   0.71    0.00    2.58
 1991 257    93    91  121.5   14.5  107.1   1.61   1.56  134.2   47.7   59.3    1.6   1.56   0.70    0.00    2.64
 1991 258    94    92  121.8   16.1  105.7   1.62   1.54  134.7   47.1   58.6    1.5   1.54   0.69    0.00    2.70
 1991 259    95    93  122.0   17.7  104.3   1.62   1.52  135.3   46.5   57.8    1.5   1.52   0.68    0.00    2.75
 1991 260    96    94  122.3   19.3  102.9   1.62   1.50  135.8   45.9   57.0    1.5   1.50   0.68    0.00    2.81
 1991 261    97    95  122.5   21.0  101.5   1.62   1.48  136.3   45.3   56.3    1.5   1.48   0.68    0.00    2.87
 1991 262    98    96  122.7   22.6  100.1   1.62   1.45  136.7   44.6   55.5    1.5   1.45   0.68    0.00    2.93
 1991 263    99    97  122.9   24.2   98.6   1.62   1.43  137.1   44.0   54.7    1.4   1.43   0.67    0.00    3.00
 1991 264   100    98  123.0   25.9   97.1   1.62   1.41  137.5   43.3   53.8    1.4   1.41   0.67    0.00    3.06
 1991 265   101    99  123.1   27.5   95.6   1.62   1.39  137.8   42.6   53.0    1.4   1.39   0.67    0.00    3.12
 1991 266   102   100  123.2   29.1   94.1   1.62   1.37  138.1   41.9   52.1    1.4   1.37   0.67    0.00    3.19
 1991 267   103   101  123.2   30.7   92.5   1.62   1.34  138.3   41.2   51.3    1.3   1.34   0.66    0.00    3.25
 1991 268   104   102  123.3   32.4   90.9   1.62   1.32  138.5   40.5   50.4    1.3   1.32   0.66    0.00    3.32
 1991 269   105   103  123.3   33.8   89.6   1.63   1.30  138.7   39.9   49.6    1.3   1.30   0.66    0.00    3.38
 1991 270   106   104  123.4   35.0   88.3   1.63   1.28  138.9   39.4   49.0    1.3   1.28   0.66    0.00    3.45
 1991 271   107   105  123.4   36.1   87.3   1.63   1.27  139.0   38.9   48.4    1.3   1.27   0.66    0.00    3.52
 1991 272   108   106  123.4   37.1   86.2   1.64   1.25  139.1   38.4   47.8    1.3   1.25   0.67    0.00    3.58
 1991 273   109   107  123.3   38.1   85.2   1.64   1.24  139.2   38.0   47.2    1.2   1.24   0.67    0.00    3.65
 1991 274   110   108  123.3   39.1   84.2   1.65   1.22  139.2   37.6   46.7    1.2   1.22   0.67    0.00    3.72
 1991 275   111   109  123.3   40.1   83.2   1.65   1.21  139.3   37.2   46.0    1.2   1.21   0.68    0.00    3.79
 1991 276   112   110  123.2   41.0   82.2   1.65   1.20  139.3   36.8   45.4    1.2   1.20   0.68    0.00    3.85
 1991 277   113   111  123.2   42.0   81.2   1.66   1.19  139.3   36.5   44.7    1.2   1.19   0.68    0.00    3.92
 1991 278   114   112  123.1   42.8   80.3   1.66   1.18  139.3   36.2   44.1    1.2   1.18   0.69    0.00    3.99
 1991 279   115   113  123.1   43.8   79.4   1.66   1.17  139.4   36.0   43.4    1.2   1.17   0.69    0.00    4.06
 1991 280   116   114  123.1   44.7   78.4   1.67   1.16  139.4   35.7   42.7    1.2   1.16   0.70    0.00    4.12
 1991 281   117   115  123.0   45.6   77.4   1.67   1.15  139.4   35.4   42.0    1.2   1.15   0.70    0.00    4.19
 1991 282   118   116  123.0   46.5   76.4   1.68   1.15  139.4   35.1   41.3    1.1   1.15   0.70    0.00    4.26
 1991 283   119   117  123.0   47.4   75.5   1.68   1.14  139.4   34.9   40.6    1.1   1.14   0.71    0.00    4.26
 1991 284   120   118  123.0   48.3   74.6   1.68   1.13  139.4   34.7   39.9    1.1   1.13   0.71    0.00    4.26
 1991 285   121   119  123.0   49.2   73.7   1.69   1.13  139.4   34.6   39.1    1.1   1.13   0.71    0.00    4.26
 1991 286   122   120  123.0   50.2   72.8   1.69   1.12  139.4   34.4   38.4    1.1   1.12   0.72    0.00    4.26
 1991 287   123   121  123.0   51.1   71.9   1.69   1.12  139.4   34.2   37.7    1.1   1.12   0.72    0.00    4.26
 1991 288   124   122  123.0   52.0   71.0   1.70   1.11  139.4   34.0   37.0    1.1   1.11   0.72    0.00    4.26
 1991 289   125   123  123.0   52.9   70.1   1.70   1.10  139.4   33.8   36.2    1.1   1.10   0.73    0.00    4.26
 1991 290   126   124  123.0   53.8   69.2   1.70   1.10  139.4   33.7   35.5    1.1   1.10   0.73    0.00    4.26
 1991 291   127   125  123.0   53.8   69.2   1.70   1.10  139.4   33.7   35.5    1.1   1.10   0.73    0.00    4.26
 1991 292   128   126  123.0   53.8   69.2   1.70   1.10  139.4   33.7   35.5    1.1   1.10   0.73    0.00    4.26

*DSSAT Cropping System Model Ver. 4.7.5.008 -release  JAN 15, 2021 21:49:57

*RUN   2        : ERiMA DCC1                MZCER047 ETMZpolo    1
 MODEL          : MZCER047 - Maize
 EXPERIMENT     : ETMZpolo SN MELKSSAL
 DATA PATH      : C:\Users\kpodo\Documents\GitHub\ET_DSS_hist_Eunjin\TEST\
 TREATMENT  1   : ERiMA DCC1                MZCER047
  
@YEAR DOY   DAS   DAP   CNAD   GNAD   VNAD   GN%D   VN%D   NUPC   LNAD   SNAD   LN%D   SN%D   RN%D   SNN0C   SNN1C
 1992 166     2     0    0.0    0.0    0.0   0.00   0.00    0.0    0.0    0.0    0.0   0.00   0.00    0.00    0.00
 1992 167     3     1    0.0    0.0    0.0   0.00   0.00    0.0    0.0    0.0    0.0   0.00   0.00    0.00    0.00
 1992 168     4     2    0.0    0.0    0.0   0.00   0.00    0.0    0.0    0.0    0.0   0.00   0.00    0.00    0.00
 1992 169     5     3    0.0    0.0    0.0   0.00   0.00    0.0    0.0    0.0    0.0   0.00   0.00    0.00    0.00
 1992 170     6     4    0.0    0.0    0.0   0.00   0.00    0.0    0.0    0.0    0.0   0.00   0.00    0.00    0.00
 1992 171     7     5    1.1    0.0    1.1   0.00   4.40    0.0    0.5    0.5    4.4   4.40   2.20    0.00    0.00
 1992 172     8     6    1.1    0.0    1.1   0.00   4.40    0.0    0.5    0.5    4.4   4.40   2.15    0.00    0.00
 1992 173     9     7    1.1    0.0    1.1   0.00   4.40    0.0    0.5    0.5    4.4   4.40   2.04    0.00    0.00
 1992 174    10     8    1.1    0.0    1.1   0.00   4.40    0.0    0.5    0.5    4.4   4.40   1.88    0.00    0.00
 1992 175    11     9    1.1    0.0    1.1   0.00   4.40    0.0    0.5    0.5    4.4   4.40   1.72    0.00    0.00
 1992 176    12    10    1.1    0.0    1.1   0.00   3.94    0.0    0.6    0.5    3.9   3.94   1.58    0.00    0.00
 1992 177    13    11    1.1    0.0    1.1   0.00   3.25    0.0    0.8    0.4    3.2   3.25   1.20    0.00    0.00
 1992 178    14    12    1.5    0.0    1.5   0.00   3.25    0.4    1.1    0.4    3.3   3.25   1.23    0.00    0.00
 1992 179    15    13    1.9    0.0    1.9   0.00   3.21    0.8    1.5    0.4    3.2   3.21   1.27    0.00    0.00
 1992 180    16    14    2.4    0.0    2.4   0.00   3.47    1.5    2.0    0.4    3.5   3.47   1.46    0.00    0.00
 1992 181    17    15    2.8    0.0    2.8   0.00   3.36    2.0    2.4    0.4    3.4   3.36   1.42    0.00    0.01
 1992 182    18    16    3.4    0.0    3.4   0.00   3.45    2.6    3.0    0.4    3.5   3.45   1.39    0.00    0.01
 1992 183    19    17    3.9    0.0    3.9   0.00   3.28    3.3    3.5    0.4    3.3   3.28   1.37    0.00    0.01
 1992 184    20    18    4.7    0.0    4.7   0.00   3.22    4.1    4.3    0.4    3.2   3.22   1.34    0.00    0.02
 1992 185    21    19    5.7    0.0    5.7   0.00   3.28    5.1    5.3    0.4    3.3   3.28   1.22    0.00    0.02
 1992 186    22    20    6.7    0.0    6.7   0.00   3.44    6.5    6.3    0.4    3.4   3.44   1.51    0.00    0.02
 1992 187    23    21    7.6    0.0    7.6   0.00   3.33    7.4    7.2    0.4    3.3   3.33   1.31    0.00    0.03
 1992 188    24    22    8.8    0.0    8.8   0.00   3.21    8.7    8.4    0.4    3.2   3.21   1.33    0.00    0.03
 1992 189    25    23   13.3    0.0   13.3   0.00   4.08   13.4   12.8    0.5    4.1   4.08   1.30    0.00    0.04
 1992 190    26    24   15.3    0.0   15.3   0.00   3.99   15.7   14.8    0.5    4.0   3.99   1.33    0.00    0.05
 1992 191    27    25   17.1    0.0   17.1   0.00   3.85   17.8   16.6    0.5    3.9   3.85   1.36    0.00    0.05
 1992 192    28    26   18.8    0.0   18.8   0.00   3.73   19.7   18.3    0.5    3.7   3.73   1.32    0.00    0.06
 1992 193    29    27   21.4    0.0   21.4   0.00   3.70   22.7   20.8    0.5    3.7   3.70   1.33    0.00    0.08
 1992 194    30    28   23.4    0.0   23.4   0.00   3.62   25.2   22.8    0.6    3.6   3.62   1.33    0.00    0.09
 1992 195    31    29   26.1    0.0   26.1   0.00   3.59   28.4   25.4    0.8    3.6   3.59   1.36    0.00    0.10
 1992 196    32    30   29.1    0.0   29.1   0.00   3.55   31.8   28.1    1.0    3.5   3.55   1.32    0.00    0.12
 1992 197    33    31   32.1    0.0   32.1   0.00   3.50   34.9   30.7    1.3    3.5   3.50   1.23    0.00    0.14
 1992 198    34    32   34.8    0.0   34.8   0.00   3.44   38.0   33.2    1.7    3.4   3.44   1.24    0.00    0.16
 1992 199    35    33   38.4    0.0   38.4   0.00   3.41   41.2   36.2    2.2    3.4   3.41   1.10    0.00    0.18
 1992 200    36    34   41.9    0.0   41.9   0.00   3.37   45.7   39.1    2.9    3.4   3.37   1.25    0.00    0.20
 1992 201    37    35   45.5    0.0   45.5   0.00   3.32   49.7   41.8    3.7    3.3   3.32   1.24    0.00    0.23
 1992 202    38    36   47.8    0.0   47.8   0.00   3.25   51.4   43.5    4.3    3.3   3.25   1.09    0.00    0.25
 1992 203    39    37   51.4    0.0   51.4   0.00   3.23   55.8   46.1    5.3    3.2   3.23   1.18    0.00    0.28
 1992 204    40    38   55.5    0.0   55.5   0.00   3.20   60.7   49.0    6.5    3.2   3.20   1.24    0.00    0.30
 1992 205    41    39   59.4    0.0   59.4   0.00   3.16   64.7   51.5    7.9    3.2   3.16   1.19    0.00    0.33
 1992 206    42    40   63.1    0.0   63.1   0.00   3.11   68.1   53.8    9.3    3.1   3.11   1.10    0.00    0.37
 1992 207    43    41   65.0    0.0   65.0   0.00   2.92   70.2   54.1   10.9    2.9   2.92   1.08    0.00    0.40
 1992 208    44    42   66.2    0.0   66.2   0.00   2.74   71.6   53.9   12.3    2.7   2.74   1.06    0.00    0.43
 1992 209    45    43   67.4    0.0   67.4   0.00   2.60   72.8   53.8   13.6    2.6   2.60   1.03    0.00    0.46
 1992 210    46    44   68.3    0.0   68.3   0.00   2.51   73.8   53.8   14.6    2.5   2.51   1.03    0.00    0.49
 1992 211    47    45   77.7    0.0   77.7   0.00   2.67   84.1   59.9   17.9    2.7   2.67   1.09    0.00    0.52
 1992 212    48    46   86.7    0.0   86.7   0.00   2.76   93.1   65.0   21.7    2.8   2.76   1.09    0.00    0.56
 1992 213    49    47   92.8    0.0   92.8   0.00   2.79   99.4   68.3   24.6    2.8   2.79   1.09    0.00    0.59
 1992 214    50    48   96.6    0.0   96.6   0.00   2.77  103.3   70.2   26.4    2.8   2.77   1.09    0.00    0.63
 1992 215    51    49   98.9    0.0   98.9   0.00   2.66  105.7   70.3   28.6    2.7   2.66   1.08    0.00    0.67
 1992 216    52    50  101.1    0.0  101.1   0.00   2.55  108.0   70.0   31.2    2.6   2.55   1.07    0.00    0.70
 1992 217    53    51  102.1    0.0  102.1   0.00   2.48  109.0   69.5   32.7    2.5   2.48   1.07    0.00    0.74
 1992 218    54    52  102.8    0.0  102.8   0.00   2.41  109.7   68.7   34.1    2.4   2.41   1.06    0.00    0.78
 1992 219    55    53  103.6    0.0  103.6   0.00   2.30  110.6   67.4   36.2    2.3   2.30   1.05    0.00    0.81
 1992 220    56    54  104.3    0.0  104.3   0.00   2.25  111.4   67.0   37.3    2.3   2.25   1.04    0.00    0.85
 1992 221    57    55  104.8    0.0  104.8   0.00   2.20  111.9   66.3   38.5    2.2   2.20   1.04    0.00    0.89
 1992 222    58    56  105.4    0.0  105.4   0.00   2.13  112.5   65.4   40.0    2.1   2.13   1.03    0.00    0.93
 1992 223    59    57  106.0    0.0  106.0   0.00   2.08  113.2   64.9   41.1    2.1   2.08   1.02    0.00    0.96
 1992 224    60    58  106.6    0.0  106.6   0.00   2.03  113.8   64.4   42.2    2.0   2.03   1.00    0.00    1.00
 1992 225    61    59  107.1    0.0  107.1   0.00   1.99  114.4   64.0   43.1    2.0   1.99   0.99    0.00    1.04
 1992 226    62    60  107.7    0.0  107.7   0.00   1.95  115.0   63.7   44.0    2.0   1.95   0.98    0.00    1.08
 1992 227    63    61  108.1    0.0  108.1   0.00   1.92  115.4   63.5   44.6    1.9   1.92   0.97    0.00    1.12
 1992 228    64    62  108.5    0.0  108.5   0.00   1.89  116.0   63.4   45.1    1.9   1.89   0.96    0.00    1.15
 1992 229    65    63  109.0    0.0  109.0   0.00   1.87  116.5   63.5   45.5    1.9   1.87   0.96    0.00    1.19
 1992 230    66    64  109.5    0.0  109.5   0.00   1.85  117.0   63.8   45.6    1.9   1.85   0.92    0.00    1.23
 1992 231    67    65  109.8    0.0  109.8   0.00   1.84  117.4   64.1   45.8    1.8   1.84   0.91    0.00    1.27
 1992 232    68    66  110.1    0.0  110.1   0.00   1.82  117.8   64.3   45.8    1.8   1.82   0.91    0.00    1.31
 1992 233    69    67  110.4    0.0  110.4   0.00   1.80  118.1   62.8   47.5    1.8   1.80   0.90    0.00    1.34
 1992 234    70    68  110.7    0.0  110.7   0.00   1.78  118.5   61.5   49.2    1.8   1.78   0.90    0.00    1.38
 1992 235    71    69  111.2    0.0  111.2   0.00   1.77  119.0   60.6   50.6    1.8   1.77   0.89    0.00    1.42
 1992 236    72    70  111.6    0.0  111.6   0.00   1.76  119.5   59.6   51.9    1.8   1.76   0.89    0.00    1.46
 1992 237    73    71  111.9    0.0  111.9   0.00   1.75  119.8   58.5   53.4    1.8   1.75   0.89    0.00    1.50
 1992 238    74    72  112.3    0.0  112.3   0.00   1.75  120.3   57.5   54.7    1.7   1.75   0.88    0.00    1.54
 1992 239    75    73  112.6    0.0  112.6   0.00   1.75  120.7   56.6   56.0    1.7   1.75   0.88    0.00    1.58
 1992 240    76    74  112.9    0.0  112.9   0.00   1.75  121.0   55.7   57.2    1.7   1.75   0.88    0.00    1.62
 1992 241    77    75  113.1    0.0  113.1   0.00   1.74  121.3   54.7   58.4    1.7   1.74   0.87    0.00    1.65
 1992 242    78    76  113.5    0.0  113.5   0.00   1.75  121.7   53.8   59.6    1.7   1.75   0.87    0.00    1.69
 1992 243    79    77  113.9    0.0  113.9   0.00   1.75  122.2   53.0   60.8    1.8   1.75   0.87    0.00    1.73
 1992 244    80    78  114.2    0.0  114.2   0.00   1.75  122.6   52.1   62.1    1.8   1.75   0.87    0.00    1.77
 1992 245    81    79  114.5    0.0  114.5   0.00   1.76  123.0   51.2   63.3    1.8   1.76   0.87    0.00    1.81
 1992 246    82    80  114.9    0.0  114.9   0.00   1.77  123.4   50.4   64.4    1.8   1.77   0.87    0.00    1.85
 1992 247    83    81  115.2    0.0  115.2   0.00   1.78  123.9   49.6   65.6    1.8   1.78   0.87    0.00    1.89
 1992 248    84    82  115.5    1.7  113.8   1.65   1.76  124.3   49.0   64.8    1.8   1.76   0.84    0.00    1.93
 1992 249    85    83  115.8    3.3  112.5   1.65   1.74  124.7   48.4   64.1    1.7   1.74   0.83    0.00    1.97
 1992 250    86    84  116.1    4.9  111.1   1.64   1.72  125.2   47.8   63.3    1.7   1.72   0.82    0.00    2.02
 1992 251    87    85  116.4    6.6  109.8   1.64   1.70  125.6   47.2   62.5    1.7   1.70   0.80    0.00    2.06
 1992 252    88    86  116.6    8.2  108.3   1.64   1.67  126.0   46.6   61.7    1.7   1.67   0.79    0.00    2.10
 1992 253    89    87  116.7    9.9  106.8   1.64   1.65  126.2   46.0   60.9    1.7   1.65   0.78    0.00    2.14
 1992 254    90    88  116.9   11.5  105.4   1.64   1.63  126.6   45.4   60.1    1.6   1.63   0.77    0.00    2.19
 1992 255    91    89  117.2   13.1  104.1   1.64   1.61  127.1   44.8   59.3    1.6   1.61   0.77    0.00    2.23
 1992 256    92    90  117.5   14.8  102.7   1.64   1.59  127.5   44.2   58.5    1.6   1.59   0.76    0.00    2.28
 1992 257    93    91  117.7   16.4  101.3   1.64   1.57  127.9   43.6   57.7    1.6   1.57   0.75    0.00    2.32
 1992 258    94    92  118.0   18.1   99.9   1.64   1.54  128.4   43.0   56.9    1.5   1.54   0.75    0.00    2.37
 1992 259    95    93  118.2   19.7   98.6   1.64   1.52  128.8   42.4   56.1    1.5   1.52   0.74    0.00    2.41
 1992 260    96    94  118.5   21.3   97.2   1.63   1.50  129.3   41.8   55.4    1.5   1.50   0.73    0.00    2.46
 1992 261    97    95  118.7   22.9   95.8   1.63   1.48  129.7   41.2   54.6    1.5   1.48   0.72    0.00    2.51
 1992 262    98    96  118.9   24.6   94.4   1.63   1.46  130.1   40.6   53.8    1.5   1.46   0.72    0.00    2.56
 1992 263    99    97  119.2   26.2   93.0   1.63   1.44  130.5   40.0   53.0    1.4   1.44   0.71    0.00    2.61
 1992 264   100    98  119.3   27.8   91.6   1.63   1.42  130.9   39.4   52.2    1.4   1.42   0.70    0.00    2.66
 1992 265   101    99  119.5   29.4   90.1   1.63   1.39  131.2   38.8   51.3    1.4   1.39   0.69    0.00    2.71
 1992 266   102   100  119.6   31.0   88.7   1.62   1.37  131.5   38.2   50.5    1.4   1.37   0.67    0.00    2.76
 1992 267   103   101  119.9   32.5   87.3   1.62   1.35  131.9   37.6   49.7    1.3   1.35   0.67    0.00    2.81
 1992 268   104   102  120.1   34.1   86.0   1.62   1.33  132.4   37.0   49.0    1.3   1.33   0.66    0.00    2.87
 1992 269   105   103  120.3   35.7   84.6   1.62   1.31  132.8   36.4   48.2    1.3   1.31   0.65    0.00    2.92
 1992 270   106   104  120.6   37.3   83.3   1.61   1.29  133.3   35.8   47.5    1.3   1.29   0.65    0.00    2.97
 1992 271   107   105  120.8   38.8   82.0   1.61   1.27  133.8   35.3   46.7    1.3   1.27   0.64    0.00    3.03
 1992 272   108   106  121.0   40.4   80.6   1.61   1.25  134.2   34.7   45.9    1.2   1.25   0.64    0.00    3.09
 1992 273   109   107  121.2   41.9   79.3   1.61   1.22  134.6   34.1   45.2    1.2   1.22   0.64    0.00    3.14
 1992 274   110   108  121.3   43.4   77.9   1.60   1.20  134.9   33.5   44.4    1.2   1.20   0.64    0.00    3.20
 1992 275   111   109  121.5   45.0   76.5   1.60   1.18  135.3   32.9   43.6    1.2   1.18   0.63    0.00    3.26
 1992 276   112   110  121.6   46.5   75.1   1.60   1.16  135.6   32.3   42.8    1.2   1.16   0.63    0.00    3.32
 1992 277   113   111  121.7   48.0   73.8   1.59   1.14  135.9   31.8   42.0    1.1   1.14   0.63    0.00    3.38
 1992 278   114   112  121.9   49.5   72.4   1.59   1.12  136.2   31.2   41.3    1.1   1.12   0.63    0.00    3.44
 1992 279   115   113  122.0   50.9   71.1   1.59   1.10  136.5   30.6   40.5    1.1   1.10   0.63    0.00    3.50
 1992 280   116   114  122.1   52.4   69.7   1.58   1.08  136.8   30.0   39.7    1.1   1.08   0.63    0.00    3.56
 1992 281   117   115  122.2   53.8   68.4   1.58   1.06  137.1   29.4   39.0    1.1   1.06   0.63    0.00    3.62
 1992 282   118   116  122.5   55.3   67.2   1.57   1.04  137.6   28.9   38.3    1.0   1.04   0.63    0.00    3.69
 1992 283   119   117  122.6   56.7   65.9   1.57   1.02  137.9   28.4   37.5    1.0   1.02   0.62    0.00    3.75
 1992 284   120   118  122.8   58.1   64.7   1.57   1.00  138.3   27.8   36.8    1.0   1.00   0.63    0.00    3.82
 1992 285   121   119  122.9   59.5   63.4   1.56   0.98  138.6   27.3   36.1    1.0   0.98   0.63    0.00    3.88
 1992 286   122   120  123.1   60.9   62.2   1.56   0.96  138.9   26.8   35.4    1.0   0.96   0.63    0.00    3.95
 1992 287   123   121  123.2   62.2   61.0   1.55   0.94  139.3   26.2   34.7    0.9   0.94   0.63    0.00    4.01
 1992 288   124   122  123.4   63.6   59.8   1.55   0.92  139.7   25.7   34.1    0.9   0.92   0.63    0.00    4.08
 1992 289   125   123  123.6   64.9   58.7   1.54   0.91  140.1   25.2   33.4    0.9   0.91   0.62    0.00    4.15
 1992 290   126   124  123.8   66.2   57.5   1.54   0.89  140.4   24.7   32.8    0.9   0.89   0.62    0.00    4.21
 1992 291   127   125  123.9   67.5   56.3   1.53   0.87  140.7   24.2   32.1    0.9   0.87   0.62    0.00    4.28
 1992 292   128   126  124.0   68.8   55.2   1.52   0.85  141.0   23.7   31.4    0.9   0.85   0.62    0.00    4.35
 1992 293   129   127  124.1   70.1   54.0   1.52   0.83  141.3   23.2   30.8    0.8   0.83   0.62    0.00    4.42
 1992 294   130   128  124.2   71.4   52.8   1.51   0.82  141.5   22.7   30.1    0.8   0.82   0.62    0.00    4.49
 1992 295   131   129  124.2   72.4   51.8   1.51   0.80  141.7   22.3   29.5    0.8   0.80   0.62    0.00    4.56
 1992 296   132   130  124.3   73.3   51.0   1.51   0.79  141.9   21.9   29.0    0.8   0.79   0.62    0.00    4.63
 1992 297   133   131  124.3   74.2   50.1   1.50   0.77  142.0   21.6   28.6    0.8   0.77   0.62    0.00    4.71
 1992 298   134   132  124.3   75.0   49.3   1.50   0.76  142.1   21.2   28.1    0.8   0.76   0.63    0.00    4.78
 1992 299   135   133  124.3   75.7   48.6   1.50   0.75  142.2   20.9   27.7    0.8   0.75   0.63    0.00    4.85
 1992 300   136   134  124.3   76.4   47.8   1.50   0.74  142.2   20.6   27.2    0.7   0.74   0.63    0.00    4.92
 1992 301   137   135  124.3   76.4   47.8   1.50   0.74  142.2   20.6   27.2    0.7   0.74   0.63    0.00    4.92
 1992 302   138   136  124.3   76.4   47.8   1.50   0.74  142.2   20.6   27.2    0.7   0.74   0.63    0.00    4.92
 1992 303   139   137  124.3   76.4   47.8   1.50   0.74  142.2   20.6   27.2    0.7   0.74   0.63    0.00    4.92
 1992 304   140   138  124.3   76.4   47.8   1.50   0.74  142.2   20.6   27.2    0.7   0.74   0.63    0.00    4.92
 1992 305   141   139  124.3   76.4   47.8   1.50   0.74  142.2   20.6   27.2    0.7   0.74   0.63    0.00    4.92

*DSSAT Cropping System Model Ver. 4.7.5.008 -release  JAN 15, 2021 21:49:57

*RUN   3        : ERiMA DCC1                MZCER047 ETMZpolo    1
 MODEL          : MZCER047 - Maize
 EXPERIMENT     : ETMZpolo SN MELKSSAL
 DATA PATH      : C:\Users\kpodo\Documents\GitHub\ET_DSS_hist_Eunjin\TEST\
 TREATMENT  1   : ERiMA DCC1                MZCER047
  
@YEAR DOY   DAS   DAP   CNAD   GNAD   VNAD   GN%D   VN%D   NUPC   LNAD   SNAD   LN%D   SN%D   RN%D   SNN0C   SNN1C
 1993 166     2     0    0.0    0.0    0.0   0.00   0.00    0.0    0.0    0.0    0.0   0.00   0.00    0.00    0.00
 1993 167     3     1    0.0    0.0    0.0   0.00   0.00    0.0    0.0    0.0    0.0   0.00   0.00    0.00    0.00
 1993 168     4     2    0.0    0.0    0.0   0.00   0.00    0.0    0.0    0.0    0.0   0.00   0.00    0.00    0.00
 1993 169     5     3    0.0    0.0    0.0   0.00   0.00    0.0    0.0    0.0    0.0   0.00   0.00    0.00    0.00
 1993 170     6     4    0.0    0.0    0.0   0.00   0.00    0.0    0.0    0.0    0.0   0.00   0.00    0.00    0.00
 1993 171     7     5    0.0    0.0    0.0   0.00   0.00    0.0    0.0    0.0    0.0   0.00   0.00    0.00    0.00
 1993 172     8     6    1.1    0.0    1.1   0.00   4.40    0.0    0.5    0.5    4.4   4.40   2.20    0.00    0.00
 1993 173     9     7    1.1    0.0    1.1   0.00   4.40    0.0    0.5    0.5    4.4   4.40   2.14    0.00    0.00
 1993 174    10     8    1.1    0.0    1.1   0.00   4.40    0.0    0.5    0.5    4.4   4.40   2.04    0.00    0.00
 1993 175    11     9    1.1    0.0    1.1   0.00   4.40    0.0    0.5    0.5    4.4   4.40   1.89    0.00    0.00
 1993 176    12    10    1.1    0.0    1.1   0.00   4.40    0.0    0.5    0.5    4.4   4.40   1.72    0.00    0.00
 1993 177    13    11    1.1    0.0    1.1   0.00   4.40    0.0    0.5    0.5    4.4   4.40   1.51    0.00    0.00
 1993 178    14    12    1.1    0.0    1.1   0.00   3.63    0.0    0.6    0.4    3.6   3.63   1.44    0.00    0.00
 1993 179    15    13    1.2    0.0    1.2   0.00   3.59    0.2    0.8    0.4    3.6   3.59   1.34    0.00    0.00
 1993 180    16    14    1.4    0.0    1.4   0.00   3.59    0.4    1.0    0.4    3.6   3.59   1.37    0.00    0.00
 1993 181    17    15    1.6    0.0    1.6   0.00   3.64    0.7    1.2    0.4    3.6   3.64   1.38    0.00    0.00
 1993 182    18    16    1.8    0.0    1.8   0.00   3.54    0.9    1.4    0.4    3.5   3.54   1.33    0.00    0.01
 1993 183    19    17    2.1    0.0    2.1   0.00   3.52    1.2    1.6    0.4    3.5   3.52   1.33    0.00    0.01
 1993 184    20    18    2.4    0.0    2.4   0.00   3.47    1.5    1.9    0.4    3.5   3.47   1.25    0.00    0.01
 1993 185    21    19    2.7    0.0    2.7   0.00   3.10    1.9    2.3    0.4    3.1   3.10   1.22    0.00    0.01
 1993 186    22    20    3.4    0.0    3.4   0.00   3.27    2.7    3.0    0.4    3.3   3.27   1.35    0.00    0.02
 1993 187    23    21    4.0    0.0    4.0   0.00   3.48    3.5    3.6    0.4    3.5   3.48   1.36    0.00    0.02
 1993 188    24    22    4.5    0.0    4.5   0.00   3.18    4.1    4.1    0.4    3.2   3.18   1.36    0.00    0.02
 1993 189    25    23    5.4    0.0    5.4   0.00   3.09    5.1    5.1    0.4    3.1   3.09   1.34    0.00    0.03
 1993 190    26    24    8.7    0.0    8.7   0.00   4.10    8.6    8.2    0.5    4.1   4.10   1.34    0.00    0.03
 1993 191    27    25   10.1    0.0   10.1   0.00   4.00   10.3    9.7    0.5    4.0   4.00   1.40    0.00    0.04
 1993 192    28    26   11.4    0.0   11.4   0.00   3.86   11.9   10.9    0.5    3.9   3.86   1.41    0.00    0.04
 1993 193    29    27   13.1    0.0   13.1   0.00   3.77   13.7   12.6    0.5    3.8   3.77   1.34    0.00    0.05
 1993 194    30    28   14.8    0.0   14.8   0.00   3.70   15.8   14.3    0.5    3.7   3.70   1.34    0.00    0.06
 1993 195    31    29   16.8    0.0   16.8   0.00   3.66   17.7   16.3    0.6    3.7   3.66   1.19    0.00    0.07
 1993 196    32    30   18.9    0.0   18.9   0.00   3.59   20.4   18.2    0.7    3.6   3.59   1.35    0.00    0.09
 1993 197    33    31   21.2    0.0   21.2   0.00   3.55   22.6   20.3    0.9    3.5   3.55   1.19    0.00    0.10
 1993 198    34    32   23.5    0.0   23.5   0.00   3.49   25.5   22.4    1.1    3.5   3.49   1.29    0.00    0.11
 1993 199    35    33   26.6    0.0   26.6   0.00   3.47   28.1   25.1    1.5    3.5   3.47   1.10    0.00    0.13
 1993 200    36    34   29.5    0.0   29.5   0.00   3.41   31.4   27.5    1.9    3.4   3.41   1.17    0.00    0.14
 1993 201    37    35   32.5    0.0   32.5   0.00   3.37   34.6   30.1    2.5    3.4   3.37   1.16    0.00    0.16
 1993 202    38    36   36.0    0.0   36.0   0.00   3.33   38.6   32.8    3.2    3.3   3.33   1.25    0.00    0.17
 1993 203    39    37   39.1    0.0   39.1   0.00   3.28   41.7   35.2    4.0    3.3   3.28   1.16    0.00    0.19
 1993 204    40    38   42.2    0.0   42.2   0.00   3.23   45.5   37.4    4.8    3.2   3.23   1.26    0.00    0.21
 1993 205    41    39   45.7    0.0   45.7   0.00   3.20   49.6   39.9    5.8    3.2   3.20   1.27    0.00    0.23
 1993 206    42    40   49.0    0.0   49.0   0.00   3.15   53.2   42.1    6.9    3.2   3.15   1.24    0.00    0.26
 1993 207    43    41   53.3    0.0   53.3   0.00   3.12   57.5   44.9    8.4    3.1   3.12   1.17    0.00    0.28
 1993 208    44    42   56.0    0.0   56.0   0.00   3.01   60.4   46.3    9.7    3.0   3.01   1.15    0.00    0.31
 1993 209    45    43   57.8    0.0   57.8   0.00   2.86   62.4   46.9   11.0    2.9   2.86   1.12    0.00    0.34
 1993 210    46    44   59.3    0.0   59.3   0.00   2.71   63.9   47.1   12.2    2.7   2.71   1.09    0.00    0.37
 1993 211    47    45   68.9    0.0   68.9   0.00   2.91   74.3   53.5   15.4    2.9   2.91   1.16    0.00    0.39
 1993 212    48    46   73.4    0.0   73.4   0.00   2.91   78.5   56.0   17.4    2.9   2.91   1.09    0.00    0.42
 1993 213    49    47   78.4    0.0   78.4   0.00   2.90   84.2   58.6   19.8    2.9   2.90   1.16    0.00    0.45
 1993 214    50    48   83.2    0.0   83.2   0.00   2.86   89.0   60.9   22.3    2.9   2.86   1.13    0.00    0.49
 1993 215    51    49   88.3    0.0   88.3   0.00   2.83   94.1   64.5   23.8    2.8   2.83   1.10    0.00    0.52
 1993 216    52    50   91.4    0.0   91.4   0.00   2.73   97.4   65.4   26.0    2.7   2.73   1.10    0.00    0.55
 1993 217    53    51   93.3    0.0   93.3   0.00   2.61   99.3   65.1   28.2    2.6   2.61   1.09    0.00    0.59
 1993 218    54    52   94.8    0.0   94.8   0.00   2.48  100.8   64.4   30.4    2.5   2.48   1.07    0.00    0.62
 1993 219    55    53   96.3    0.0   96.3   0.00   2.42  102.4   64.1   32.1    2.4   2.42   1.06    0.00    0.66
 1993 220    56    54   97.3    0.0   97.3   0.00   2.31  103.5   63.2   34.1    2.3   2.31   1.03    0.00    0.69
 1993 221    57    55   98.4    0.0   98.4   0.00   2.21  104.7   62.4   36.0    2.2   2.21   1.01    0.00    0.72
 1993 222    58    56   99.5    0.0   99.5   0.00   2.13  105.8   61.7   37.8    2.1   2.13   0.99    0.00    0.76
 1993 223    59    57  100.5    0.0  100.5   0.00   2.07  106.9   61.2   39.2    2.1   2.07   0.96    0.00    0.79
 1993 224    60    58  101.4    0.0  101.4   0.00   2.02  107.9   60.9   40.5    2.0   2.02   0.94    0.00    0.83
 1993 225    61    59  102.3    0.0  102.3   0.00   1.99  108.9   60.8   41.5    2.0   1.99   0.92    0.00    0.86
 1993 226    62    60  103.0    0.0  103.0   0.00   1.95  109.7   60.6   42.4    2.0   1.95   0.91    0.00    0.90
 1993 227    63    61  103.6    0.0  103.6   0.00   1.92  110.4   60.6   43.0    1.9   1.92   0.87    0.00    0.93
 1993 228    64    62  104.3    0.0  104.3   0.00   1.90  111.2   60.8   43.5    1.9   1.90   0.84    0.00    0.97
 1993 229    65    63  105.1    0.0  105.1   0.00   1.87  112.0   61.0   44.0    1.9   1.87   0.83    0.00    1.01
 1993 230    66    64  105.7    0.0  105.7   0.00   1.85  112.8   61.4   44.3    1.9   1.85   0.81    0.00    1.04
 1993 231    67    65  106.4    0.0  106.4   0.00   1.84  113.6   61.9   44.5    1.8   1.84   0.80    0.00    1.08
 1993 232    68    66  107.1    0.0  107.1   0.00   1.83  114.4   62.5   44.6    1.8   1.83   0.79    0.00    1.12
 1993 233    69    67  107.6    0.0  107.6   0.00   1.81  115.0   61.3   46.3    1.8   1.81   0.79    0.00    1.15
 1993 234    70    68  108.1    0.0  108.1   0.00   1.79  115.5   60.1   48.0    1.8   1.79   0.79    0.00    1.19
 1993 235    71    69  108.6    0.0  108.6   0.00   1.79  116.2   59.1   49.5    1.8   1.79   0.79    0.00    1.23
 1993 236    72    70  109.1    0.0  109.1   0.00   1.78  116.7   58.2   50.9    1.8   1.78   0.79    0.00    1.27
 1993 237    73    71  109.6    0.0  109.6   0.00   1.78  117.3   57.2   52.4    1.8   1.78   0.79    0.00    1.31
 1993 238    74    72  110.2    0.0  110.2   0.00   1.78  118.0   56.5   53.7    1.8   1.78   0.80    0.00    1.34
 1993 239    75    73  110.7    0.0  110.7   0.00   1.78  118.6   55.7   55.0    1.8   1.78   0.80    0.00    1.38
 1993 240    76    74  111.1    0.0  111.1   0.00   1.78  119.2   54.9   56.2    1.8   1.78   0.80    0.00    1.42
 1993 241    77    75  111.6    0.0  111.6   0.00   1.79  119.7   54.1   57.4    1.8   1.79   0.81    0.00    1.46
 1993 242    78    76  111.9    0.0  111.9   0.00   1.79  120.2   53.3   58.7    1.8   1.79   0.81    0.00    1.50
 1993 243    79    77  112.2    0.0  112.2   0.00   1.79  120.5   52.4   59.7    1.8   1.79   0.81    0.00    1.54
 1993 244    80    78  112.4    0.0  112.4   0.00   1.80  120.8   51.5   60.9    1.8   1.80   0.81    0.00    1.58
 1993 245    81    79  112.7    0.0  112.7   0.00   1.81  121.2   50.7   62.0    1.8   1.81   0.81    0.00    1.62
 1993 246    82    80  113.1    0.0  113.1   0.00   1.82  121.8   50.0   63.1    1.8   1.82   0.82    0.00    1.66
 1993 247    83    81  113.4    0.0  113.4   0.00   1.83  122.2   49.1   64.3    1.8   1.83   0.82    0.00    1.71
 1993 248    84    82  113.6    1.7  112.0   1.69   1.81  122.7   48.5   63.5    1.8   1.81   0.80    0.00    1.75
 1993 249    85    83  113.9    3.3  110.6   1.69   1.78  123.1   47.9   62.7    1.8   1.78   0.79    0.00    1.79
 1993 250    86    84  114.2    5.0  109.2   1.68   1.76  123.6   47.3   61.9    1.8   1.76   0.77    0.00    1.84
 1993 251    87    85  114.5    6.7  107.8   1.68   1.74  124.1   46.7   61.1    1.7   1.74   0.76    0.00    1.88
 1993 252    88    86  114.7    8.3  106.4   1.68   1.72  124.6   46.1   60.3    1.7   1.72   0.76    0.00    1.93
 1993 253    89    87  115.0   10.0  105.0   1.68   1.69  125.1   45.5   59.5    1.7   1.69   0.75    0.00    1.97
 1993 254    90    88  115.2   11.6  103.6   1.68   1.67  125.6   44.9   58.7    1.7   1.67   0.75    0.00    2.02
 1993 255    91    89  115.5   13.3  102.1   1.68   1.65  126.1   44.3   57.9    1.6   1.65   0.75    0.00    2.07
 1993 256    92    90  115.7   15.0  100.7   1.68   1.62  126.6   43.6   57.1    1.6   1.62   0.75    0.00    2.12
 1993 257    93    91  116.0   16.6   99.3   1.68   1.60  127.1   43.0   56.3    1.6   1.60   0.74    0.00    2.17
 1993 258    94    92  116.2   18.3   97.9   1.68   1.58  127.6   42.4   55.5    1.6   1.58   0.74    0.00    2.22
 1993 259    95    93  116.3   19.9   96.4   1.68   1.55  127.9   41.8   54.6    1.6   1.55   0.74    0.00    2.27
 1993 260    96    94  116.6   21.6   95.0   1.68   1.53  128.5   41.2   53.8    1.5   1.53   0.73    0.00    2.32
 1993 261    97    95  116.8   23.2   93.6   1.68   1.51  129.0   40.6   53.0    1.5   1.51   0.73    0.00    2.38
 1993 262    98    96  117.1   24.9   92.2   1.68   1.49  129.5   39.9   52.2    1.5   1.49   0.72    0.00    2.43
 1993 263    99    97  117.3   26.5   90.8   1.68   1.46  130.1   39.3   51.4    1.5   1.46   0.72    0.00    2.49
 1993 264   100    98  117.5   28.2   89.3   1.68   1.44  130.6   38.7   50.6    1.4   1.44   0.72    0.00    2.55
 1993 265   101    99  117.7   29.8   87.9   1.67   1.42  131.1   38.1   49.8    1.4   1.42   0.71    0.00    2.61
 1993 266   102   100  117.9   31.4   86.5   1.67   1.40  131.6   37.5   49.0    1.4   1.40   0.72    0.00    2.67
 1993 267   103   101  118.2   33.1   85.1   1.67   1.37  132.1   36.9   48.2    1.4   1.37   0.72    0.00    2.73
 1993 268   104   102  118.4   34.7   83.7   1.67   1.35  132.6   36.3   47.4    1.3   1.35   0.72    0.00    2.79
 1993 269   105   103  118.6   36.3   82.3   1.67   1.33  133.1   35.7   46.6    1.3   1.33   0.72    0.00    2.86
 1993 270   106   104  118.8   37.9   80.9   1.67   1.30  133.5   35.0   45.8    1.3   1.30   0.72    0.00    2.92
 1993 271   107   105  119.0   39.5   79.5   1.66   1.28  134.0   34.4   45.0    1.3   1.28   0.73    0.00    2.99
 1993 272   108   106  119.2   41.1   78.1   1.66   1.26  134.5   33.8   44.3    1.3   1.26   0.73    0.00    3.05
 1993 273   109   107  119.4   42.7   76.7   1.66   1.24  135.0   33.2   43.5    1.2   1.24   0.73    0.00    3.12
 1993 274   110   108  119.6   44.2   75.4   1.66   1.22  135.4   32.7   42.7    1.2   1.22   0.74    0.00    3.19
 1993 275   111   109  119.8   45.8   74.0   1.65   1.19  135.9   32.1   41.9    1.2   1.19   0.73    0.00    3.26
 1993 276   112   110  120.0   47.4   72.6   1.65   1.17  136.3   31.5   41.2    1.2   1.17   0.73    0.00    3.33
 1993 277   113   111  120.2   48.9   71.3   1.65   1.15  136.8   30.9   40.4    1.1   1.15   0.73    0.00    3.40
 1993 278   114   112  120.4   50.4   69.9   1.64   1.13  137.2   30.3   39.6    1.1   1.13   0.73    0.00    3.47
 1993 279   115   113  120.6   52.0   68.6   1.64   1.11  137.7   29.7   38.9    1.1   1.11   0.73    0.00    3.55
 1993 280   116   114  120.8   53.5   67.3   1.64   1.09  138.2   29.2   38.1    1.1   1.09   0.73    0.00    3.62
 1993 281   117   115  121.0   55.0   66.0   1.63   1.06  138.6   28.6   37.4    1.1   1.06   0.72    0.00    3.70
 1993 282   118   116  121.2   56.5   64.7   1.63   1.04  139.1   28.0   36.7    1.0   1.04   0.72    0.00    3.77
 1993 283   119   117  121.4   57.9   63.4   1.63   1.02  139.5   27.5   36.0    1.0   1.02   0.71    0.00    3.85
 1993 284   120   118  121.5   59.4   62.1   1.62   1.00  139.9   26.9   35.2    1.0   1.00   0.71    0.00    3.93
 1993 285   121   119  121.6   60.8   60.8   1.62   0.98  140.2   26.3   34.5    1.0   0.98   0.70    0.00    4.01
 1993 286   122   120  121.7   62.3   59.5   1.61   0.96  140.5   25.8   33.7    1.0   0.96   0.70    0.00    4.09
 1993 287   123   121  121.8   63.7   58.1   1.61   0.94  140.7   25.2   32.9    0.9   0.94   0.70    0.00    4.17
 1993 288   124   122  121.8   65.0   56.8   1.61   0.92  140.9   24.6   32.2    0.9   0.92   0.69    0.00    4.25
 1993 289   125   123  121.9   66.1   55.8   1.60   0.90  141.1   24.2   31.6    0.9   0.90   0.69    0.00    4.33
 1993 290   126   124  121.9   67.0   54.8   1.60   0.88  141.2   23.8   31.1    0.9   0.88   0.69    0.00    4.41
 1993 291   127   125  121.9   67.9   53.9   1.60   0.87  141.4   23.4   30.6    0.9   0.87   0.70    0.00    4.49
 1993 292   128   126  121.9   68.8   53.0   1.60   0.86  141.4   23.0   30.1    0.9   0.86   0.70    0.00    4.57
 1993 293   129   127  121.8   69.7   52.1   1.60   0.84  141.5   22.6   29.5    0.8   0.84   0.71    0.00    4.66
 1993 294   130   128  121.8   70.5   51.3   1.60   0.83  141.5   22.2   29.0    0.8   0.83   0.71    0.00    4.74
 1993 295   131   129  121.7   71.3   50.4   1.59   0.82  141.6   21.9   28.5    0.8   0.82   0.71    0.00    4.82
 1993 296   132   130  121.7   72.1   49.6   1.59   0.81  141.6   21.6   27.9    0.8   0.81   0.72    0.00    4.90
 1993 297   133   131  121.6   72.8   48.8   1.59   0.80  141.6   21.4   27.4    0.8   0.80   0.72    0.00    4.98
 1993 298   134   132  121.6   72.8   48.8   1.59   0.80  141.6   21.4   27.4    0.8   0.80   0.72    0.00    4.98
 1993 299   135   133  121.6   72.8   48.8   1.59   0.80  141.6   21.4   27.4    0.8   0.80   0.72    0.00    4.98
 1993 300   136   134  121.6   72.8   48.8   1.59   0.80  141.6   21.4   27.4    0.8   0.80   0.72    0.00    4.98
 1993 301   137   135  121.6   72.8   48.8   1.59   0.80  141.6   21.4   27.4    0.8   0.80   0.72    0.00    4.98

*DSSAT Cropping System Model Ver. 4.7.5.008 -release  JAN 15, 2021 21:49:57

*RUN   4        : ERiMA DCC1                MZCER047 ETMZpolo    1
 MODEL          : MZCER047 - Maize
 EXPERIMENT     : ETMZpolo SN MELKSSAL
 DATA PATH      : C:\Users\kpodo\Documents\GitHub\ET_DSS_hist_Eunjin\TEST\
 TREATMENT  1   : ERiMA DCC1                MZCER047
  
@YEAR DOY   DAS   DAP   CNAD   GNAD   VNAD   GN%D   VN%D   NUPC   LNAD   SNAD   LN%D   SN%D   RN%D   SNN0C   SNN1C
 1994 166     2     0    0.0    0.0    0.0   0.00   0.00    0.0    0.0    0.0    0.0   0.00   0.00    0.00    0.00
 1994 167     3     1    0.0    0.0    0.0   0.00   0.00    0.0    0.0    0.0    0.0   0.00   0.00    0.00    0.00
 1994 168     4     2    0.0    0.0    0.0   0.00   0.00    0.0    0.0    0.0    0.0   0.00   0.00    0.00    0.00
 1994 169     5     3    0.0    0.0    0.0   0.00   0.00    0.0    0.0    0.0    0.0   0.00   0.00    0.00    0.00
 1994 170     6     4    0.0    0.0    0.0   0.00   0.00    0.0    0.0    0.0    0.0   0.00   0.00    0.00    0.00
 1994 171     7     5    1.1    0.0    1.1   0.00   4.40    0.0    0.5    0.5    4.4   4.40   2.20    0.00    0.00
 1994 172     8     6    1.1    0.0    1.1   0.00   4.40    0.0    0.5    0.5    4.4   4.40   2.14    0.00    0.00
 1994 173     9     7    1.1    0.0    1.1   0.00   4.40    0.0    0.5    0.5    4.4   4.40   2.02    0.00    0.00
 1994 174    10     8    1.1    0.0    1.1   0.00   4.40    0.0    0.5    0.5    4.4   4.40   1.86    0.00    0.00
 1994 175    11     9    1.1    0.0    1.1   0.00   4.40    0.0    0.5    0.5    4.4   4.40   1.66    0.00    0.00
 1994 176    12    10    1.1    0.0    1.1   0.00   3.86    0.0    0.6    0.5    3.9   3.86   1.58    0.00    0.00
 1994 177    13    11    1.2    0.0    1.2   0.00   3.28    0.1    0.8    0.4    3.3   3.28   1.19    0.00    0.00
 1994 178    14    12    1.5    0.0    1.5   0.00   3.17    0.4    1.1    0.4    3.2   3.17   1.18    0.00    0.00
 1994 179    15    13    1.9    0.0    1.9   0.00   3.17    0.9    1.5    0.4    3.2   3.17   1.28    0.00    0.00
 1994 180    16    14    2.5    0.0    2.5   0.00   3.38    1.5    2.1    0.4    3.4   3.38   1.32    0.00    0.00
 1994 181    17    15    3.0    0.0    3.0   0.00   3.37    2.1    2.6    0.4    3.4   3.37   1.40    0.00    0.01
 1994 182    18    16    3.5    0.0    3.5   0.00   3.30    2.8    3.1    0.4    3.3   3.30   1.45    0.00    0.01
 1994 183    19    17    4.3    0.0    4.3   0.00   3.28    3.6    3.9    0.4    3.3   3.28   1.40    0.00    0.01
 1994 184    20    18    5.1    0.0    5.1   0.00   3.28    4.6    4.7    0.4    3.3   3.28   1.50    0.00    0.01
 1994 185    21    19    6.0    0.0    6.0   0.00   3.52    5.8    5.6    0.4    3.5   3.52   1.47    0.00    0.02
 1994 186    22    20    6.7    0.0    6.7   0.00   3.32    6.5    6.3    0.4    3.3   3.32   1.36    0.00    0.02
 1994 187    23    21    7.7    0.0    7.7   0.00   3.27    7.5    7.3    0.4    3.3   3.27   1.23    0.00    0.03
 1994 188    24    22   11.3    0.0   11.3   0.00   4.06   11.5   10.8    0.5    4.1   4.06   1.39    0.00    0.03
 1994 189    25    23   12.9    0.0   12.9   0.00   3.97   13.3   12.4    0.5    4.0   3.97   1.37    0.00    0.04
 1994 190    26    24   14.0    0.0   14.0   0.00   3.82   14.8   13.5    0.5    3.8   3.82   1.41    0.00    0.05
 1994 191    27    25   15.5    0.0   15.5   0.00   3.74   16.6   15.1    0.5    3.7   3.74   1.34    0.00    0.06
 1994 192    28    26   17.4    0.0   17.4   0.00   3.69   18.8   16.9    0.5    3.7   3.69   1.33    0.00    0.07
 1994 193    29    27   19.6    0.0   19.6   0.00   3.64   20.9   19.0    0.6    3.6   3.64   1.21    0.00    0.09
 1994 194    30    28   21.8    0.0   21.8   0.00   3.59   22.9   21.1    0.7    3.6   3.59   1.10    0.00    0.10
 1994 195    31    29   24.2    0.0   24.2   0.00   3.54   26.3   23.3    0.8    3.5   3.54   1.33    0.00    0.11
 1994 196    32    30   27.6    0.0   27.6   0.00   3.52   29.9   26.4    1.2    3.5   3.52   1.25    0.00    0.13
 1994 197    33    31   30.7    0.0   30.7   0.00   3.46   33.1   29.1    1.6    3.5   3.46   1.20    0.00    0.14
 1994 198    34    32   33.8    0.0   33.8   0.00   3.40   36.5   31.7    2.0    3.4   3.40   1.22    0.00    0.16
 1994 199    35    33   36.9    0.0   36.9   0.00   3.36   40.0   34.3    2.6    3.4   3.36   1.21    0.00    0.18
 1994 200    36    34   40.3    0.0   40.3   0.00   3.31   44.0   37.0    3.3    3.3   3.31   1.26    0.00    0.20
 1994 201    37    35   44.2    0.0   44.2   0.00   3.27   48.3   40.0    4.3    3.3   3.27   1.24    0.00    0.23
 1994 202    38    36   47.5    0.0   47.5   0.00   3.22   51.8   42.3    5.2    3.2   3.22   1.20    0.00    0.25
 1994 203    39    37   49.8    0.0   49.8   0.00   3.09   54.1   43.6    6.2    3.1   3.09   1.15    0.00    0.28
 1994 204    40    38   51.5    0.0   51.5   0.00   2.95   56.0   44.4    7.1    2.9   2.95   1.12    0.00    0.31
 1994 205    41    39   52.8    0.0   52.8   0.00   2.78   57.4   44.7    8.1    2.8   2.78   1.08    0.00    0.33
 1994 206    42    40   54.1    0.0   54.1   0.00   2.62   58.8   44.9    9.2    2.6   2.62   1.04    0.00    0.36
 1994 207    43    41   55.4    0.0   55.4   0.00   2.49   60.2   45.1   10.2    2.5   2.49   1.02    0.00    0.39
 1994 208    44    42   56.6    0.0   56.6   0.00   2.37   61.5   45.3   11.3    2.4   2.37   1.01    0.00    0.42
 1994 209    45    43   57.6    0.0   57.6   0.00   2.27   62.6   45.2   12.3    2.3   2.27   0.98    0.00    0.45
 1994 210    46    44   58.5    0.0   58.5   0.00   2.17   63.6   45.1   13.3    2.2   2.17   0.95    0.00    0.48
 1994 211    47    45   68.1    0.0   68.1   0.00   2.42   73.6   51.8   16.3    2.4   2.42   1.00    0.00    0.51
 1994 212    48    46   76.7    0.0   76.7   0.00   2.58   82.5   57.9   18.8    2.6   2.58   1.05    0.00    0.54
 1994 213    49    47   82.5    0.0   82.5   0.00   2.59   88.7   60.9   21.7    2.6   2.59   1.06    0.00    0.57
 1994 214    50    48   86.6    0.0   86.6   0.00   2.58   92.9   62.6   24.0    2.6   2.58   1.07    0.00    0.61
 1994 215    51    49   89.3    0.0   89.3   0.00   2.50   95.6   62.8   26.5    2.5   2.50   1.06    0.00    0.64
 1994 216    52    50   91.1    0.0   91.1   0.00   2.40   97.5   62.2   28.9    2.4   2.40   1.05    0.00    0.68
 1994 217    53    51   92.4    0.0   92.4   0.00   2.29   98.9   61.3   31.1    2.3   2.29   1.03    0.00    0.71
 1994 218    54    52   93.5    0.0   93.5   0.00   2.21  100.1   60.6   33.0    2.2   2.21   1.03    0.00    0.75
 1994 219    55    53   94.5    0.0   94.5   0.00   2.16  101.2   60.2   34.3    2.2   2.16   1.02    0.00    0.78
 1994 220    56    54   95.4    0.0   95.4   0.00   2.08  102.1   59.4   36.0    2.1   2.08   1.01    0.00    0.82
 1994 221    57    55   96.2    0.0   96.2   0.00   2.02  103.0   58.9   37.4    2.0   2.02   0.99    0.00    0.86
 1994 222    58    56   96.9    0.0   96.9   0.00   1.97  103.7   58.4   38.5    2.0   1.97   0.96    0.00    0.89
 1994 223    59    57   97.6    0.0   97.6   0.00   1.95  104.5   58.4   39.2    2.0   1.95   0.96    0.00    0.93
 1994 224    60    58   98.2    0.0   98.2   0.00   1.92  105.2   58.2   40.0    1.9   1.92   0.92    0.00    0.96
 1994 225    61    59   98.8    0.0   98.8   0.00   1.90  105.8   58.1   40.7    1.9   1.90   0.92    0.00    1.00
 1994 226    62    60   99.3    0.0   99.3   0.00   1.88  106.4   58.0   41.4    1.9   1.88   0.92    0.00    1.04
 1994 227    63    61   99.8    0.0   99.8   0.00   1.85  106.9   58.0   41.8    1.9   1.85   0.90    0.00    1.07
 1994 228    64    62  100.3    0.0  100.3   0.00   1.83  107.6   58.4   42.0    1.8   1.83   0.87    0.00    1.11
 1994 229    65    63  100.9    0.0  100.9   0.00   1.81  108.2   58.3   42.6    1.8   1.81   0.82    0.00    1.15
 1994 230    66    64  101.4    0.0  101.4   0.00   1.78  108.9   58.3   43.2    1.8   1.78   0.80    0.00    1.19
 1994 231    67    65  102.0    0.0  102.0   0.00   1.76  109.5   56.9   45.1    1.8   1.76   0.79    0.00    1.22
 1994 232    68    66  102.5    0.0  102.5   0.00   1.75  110.1   56.1   46.4    1.7   1.75   0.80    0.00    1.26
 1994 233    69    67  103.0    0.0  103.0   0.00   1.75  110.7   55.5   47.6    1.7   1.75   0.80    0.00    1.30
 1994 234    70    68  103.5    0.0  103.5   0.00   1.74  111.2   54.5   49.0    1.7   1.74   0.80    0.00    1.34
 1994 235    71    69  104.0    0.0  104.0   0.00   1.74  111.8   53.6   50.3    1.7   1.74   0.80    0.00    1.38
 1994 236    72    70  104.4    0.0  104.4   0.00   1.73  112.4   52.8   51.7    1.7   1.73   0.80    0.00    1.42
 1994 237    73    71  104.9    0.0  104.9   0.00   1.73  112.9   52.0   52.9    1.7   1.73   0.81    0.00    1.46
 1994 238    74    72  105.3    0.0  105.3   0.00   1.73  113.4   51.1   54.2    1.7   1.73   0.81    0.00    1.50
 1994 239    75    73  105.8    0.0  105.8   0.00   1.73  114.0   50.4   55.4    1.7   1.73   0.81    0.00    1.53
 1994 240    76    74  106.2    0.0  106.2   0.00   1.74  114.5   49.6   56.7    1.7   1.74   0.81    0.00    1.57
 1994 241    77    75  106.6    0.0  106.6   0.00   1.74  115.0   48.7   57.9    1.7   1.74   0.81    0.00    1.61
 1994 242    78    76  106.9    0.0  106.9   0.00   1.75  115.4   48.1   58.8    1.7   1.75   0.82    0.00    1.66
 1994 243    79    77  107.3    0.0  107.3   0.00   1.76  115.9   47.3   60.0    1.8   1.76   0.82    0.00    1.70
 1994 244    80    78  107.7    0.0  107.7   0.00   1.76  116.4   46.4   61.3    1.8   1.76   0.82    0.00    1.74
 1994 245    81    79  108.1    0.0  108.1   0.00   1.77  117.0   45.6   62.5    1.8   1.77   0.83    0.00    1.78
 1994 246    82    80  108.4    1.6  106.8   1.64   1.75  117.3   45.1   61.7    1.8   1.75   0.81    0.00    1.82
 1994 247    83    81  108.5    3.1  105.4   1.64   1.73  117.6   44.5   60.9    1.7   1.73   0.79    0.00    1.86
 1994 248    84    82  108.8    4.6  104.2   1.63   1.71  118.1   44.0   60.2    1.7   1.71   0.79    0.00    1.91
 1994 249    85    83  109.2    6.2  103.0   1.63   1.69  118.6   43.5   59.5    1.7   1.69   0.77    0.00    1.95
 1994 250    86    84  109.5    7.7  101.7   1.63   1.67  119.1   43.0   58.8    1.7   1.67   0.77    0.00    1.99
 1994 251    87    85  109.7    9.3  100.5   1.63   1.65  119.6   42.4   58.0    1.6   1.65   0.75    0.00    2.04
 1994 252    88    86  110.0   10.8   99.2   1.63   1.63  120.1   41.9   57.3    1.6   1.63   0.74    0.00    2.08
 1994 253    89    87  110.3   12.4   97.9   1.63   1.61  120.6   41.4   56.6    1.6   1.61   0.73    0.00    2.13
 1994 254    90    88  110.6   13.9   96.7   1.63   1.59  121.0   40.8   55.8    1.6   1.59   0.73    0.00    2.18
 1994 255    91    89  110.8   15.4   95.3   1.63   1.56  121.4   40.3   55.1    1.6   1.56   0.71    0.00    2.23
 1994 256    92    90  111.0   17.0   94.0   1.63   1.54  121.8   39.7   54.3    1.5   1.54   0.70    0.00    2.27
 1994 257    93    91  111.2   18.5   92.7   1.63   1.52  122.2   39.1   53.5    1.5   1.52   0.69    0.00    2.32
 1994 258    94    92  111.4   20.1   91.3   1.63   1.50  122.6   38.6   52.8    1.5   1.50   0.68    0.00    2.37
 1994 259    95    93  111.6   21.6   90.0   1.63   1.48  123.0   38.0   52.0    1.5   1.48   0.68    0.00    2.42
 1994 260    96    94  111.7   23.1   88.6   1.63   1.45  123.4   37.4   51.2    1.5   1.45   0.67    0.00    2.48
 1994 261    97    95  111.9   24.7   87.2   1.63   1.43  123.7   36.8   50.4    1.4   1.43   0.67    0.00    2.53
 1994 262    98    96  112.0   26.2   85.8   1.63   1.41  124.0   36.2   49.6    1.4   1.41   0.66    0.00    2.58
 1994 263    99    97  112.3   27.7   84.6   1.62   1.39  124.6   35.7   48.9    1.4   1.39   0.67    0.00    2.64
 1994 264   100    98  112.4   29.2   83.2   1.62   1.37  125.0   35.1   48.1    1.4   1.37   0.67    0.00    2.69
 1994 265   101    99  112.6   30.7   81.8   1.62   1.34  125.3   34.6   47.3    1.3   1.34   0.67    0.00    2.75
 1994 266   102   100  112.7   32.2   80.5   1.62   1.32  125.6   34.0   46.5    1.3   1.32   0.67    0.00    2.80
 1994 267   103   101  112.9   33.7   79.2   1.62   1.30  126.0   33.4   45.7    1.3   1.30   0.67    0.00    2.86
 1994 268   104   102  113.0   35.2   77.8   1.62   1.28  126.4   32.9   45.0    1.3   1.28   0.66    0.00    2.92
 1994 269   105   103  113.2   36.7   76.5   1.61   1.26  126.7   32.3   44.2    1.3   1.26   0.65    0.00    2.98
 1994 270   106   104  113.4   38.1   75.2   1.61   1.23  127.1   31.8   43.5    1.2   1.23   0.65    0.00    3.04
 1994 271   107   105  113.5   39.6   73.9   1.61   1.21  127.4   31.2   42.7    1.2   1.21   0.64    0.00    3.10
 1994 272   108   106  113.6   41.0   72.5   1.60   1.19  127.6   30.6   41.9    1.2   1.19   0.63    0.00    3.16
 1994 273   109   107  113.6   42.5   71.1   1.60   1.17  127.9   30.0   41.1    1.2   1.17   0.62    0.00    3.22
 1994 274   110   108  113.7   43.7   70.0   1.60   1.15  128.0   29.6   40.5    1.1   1.15   0.61    0.00    3.28
 1994 275   111   109  113.7   44.6   69.1   1.60   1.13  128.2   29.2   39.9    1.1   1.13   0.62    0.00    3.34
 1994 276   112   110  113.7   45.6   68.2   1.60   1.12  128.3   28.8   39.4    1.1   1.12   0.62    0.00    3.40
 1994 277   113   111  113.7   46.5   67.3   1.60   1.10  128.4   28.4   38.9    1.1   1.10   0.62    0.00    3.47
 1994 278   114   112  113.7   47.4   66.4   1.60   1.09  128.5   28.0   38.3    1.1   1.09   0.62    0.00    3.53
 1994 279   115   113  113.7   48.2   65.5   1.60   1.07  128.5   27.7   37.8    1.1   1.07   0.63    0.00    3.59
 1994 280   116   114  113.7   49.1   64.6   1.61   1.06  128.6   27.3   37.3    1.1   1.06   0.63    0.00    3.65
 1994 281   117   115  113.6   49.9   63.8   1.61   1.05  128.6   27.0   36.8    1.0   1.05   0.63    0.00    3.72
 1994 282   118   116  113.6   50.7   62.9   1.61   1.04  128.6   26.7   36.2    1.0   1.04   0.64    0.00    3.78
 1994 283   119   117  113.5   51.4   62.1   1.61   1.03  128.6   26.5   35.6    1.0   1.03   0.64    0.00    3.84
 1994 284   120   118  113.5   52.2   61.3   1.61   1.02  128.6   26.3   35.0    1.0   1.02   0.64    0.00    3.90
 1994 285   121   119  113.4   52.9   60.5   1.61   1.01  128.6   26.1   34.4    1.0   1.01   0.65    0.00    3.97
 1994 286   122   120  113.4   53.7   59.7   1.61   1.01  128.6   25.9   33.8    1.0   1.01   0.65    0.00    4.03
 1994 287   123   121  113.3   54.4   58.9   1.61   1.00  128.6   25.7   33.2    1.0   1.00   0.65    0.00    4.09
 1994 288   124   122  113.4   55.2   58.2   1.61   0.99  128.7   25.5   32.7    1.0   0.99   0.66    0.00    4.15
 1994 289   125   123  113.3   55.9   57.4   1.61   0.98  128.8   25.3   32.1    1.0   0.98   0.66    0.00    4.22
 1994 290   126   124  113.3   56.7   56.6   1.61   0.98  128.8   25.1   31.5    1.0   0.98   0.66    0.00    4.22
 1994 291   127   125  113.3   57.4   55.9   1.61   0.97  128.8   25.0   30.9    1.0   0.97   0.67    0.00    4.22
 1994 292   128   126  113.3   58.1   55.2   1.61   0.97  128.8   24.9   30.3    1.0   0.97   0.67    0.00    4.22
 1994 293   129   127  113.3   58.9   54.4   1.61   0.96  128.8   24.7   29.7    1.0   0.96   0.67    0.00    4.22
 1994 294   130   128  113.3   59.7   53.7   1.62   0.95  128.8   24.6   29.1    1.0   0.95   0.68    0.00    4.22
 1994 295   131   129  113.3   60.4   52.9   1.62   0.95  128.8   24.4   28.5    0.9   0.95   0.68    0.00    4.22
 1994 296   132   130  113.3   61.2   52.1   1.62   0.94  128.8   24.2   27.9    0.9   0.94   0.68    0.00    4.22
 1994 297   133   131  113.3   62.0   51.4   1.62   0.94  128.8   24.1   27.3    0.9   0.94   0.69    0.00    4.22
 1994 298   134   132  113.3   62.0   51.4   1.62   0.94  128.8   24.1   27.3    0.9   0.94   0.69    0.00    4.22
 1994 299   135   133  113.3   62.0   51.4   1.62   0.94  128.8   24.1   27.3    0.9   0.94   0.69    0.00    4.22

*DSSAT Cropping System Model Ver. 4.7.5.008 -release  JAN 15, 2021 21:49:57

*RUN   5        : ERiMA DCC1                MZCER047 ETMZpolo    1
 MODEL          : MZCER047 - Maize
 EXPERIMENT     : ETMZpolo SN MELKSSAL
 DATA PATH      : C:\Users\kpodo\Documents\GitHub\ET_DSS_hist_Eunjin\TEST\
 TREATMENT  1   : ERiMA DCC1                MZCER047
  
@YEAR DOY   DAS   DAP   CNAD   GNAD   VNAD   GN%D   VN%D   NUPC   LNAD   SNAD   LN%D   SN%D   RN%D   SNN0C   SNN1C
 1995 166     2     0    0.0    0.0    0.0   0.00   0.00    0.0    0.0    0.0    0.0   0.00   0.00    0.00    0.00
 1995 167     3     1    0.0    0.0    0.0   0.00   0.00    0.0    0.0    0.0    0.0   0.00   0.00    0.00    0.00
 1995 168     4     2    0.0    0.0    0.0   0.00   0.00    0.0    0.0    0.0    0.0   0.00   0.00    0.00    0.00
 1995 169     5     3    0.0    0.0    0.0   0.00   0.00    0.0    0.0    0.0    0.0   0.00   0.00    0.00    0.00
 1995 170     6     4    0.0    0.0    0.0   0.00   0.00    0.0    0.0    0.0    0.0   0.00   0.00    0.00    0.00
 1995 171     7     5    1.1    0.0    1.1   0.00   4.40    0.0    0.5    0.5    4.4   4.40   2.20    0.00    0.00
 1995 172     8     6    1.1    0.0    1.1   0.00   4.40    0.0    0.5    0.5    4.4   4.40   2.15    0.00    0.00
 1995 173     9     7    1.1    0.0    1.1   0.00   4.40    0.0    0.5    0.5    4.4   4.40   2.04    0.00    0.00
 1995 174    10     8    1.1    0.0    1.1   0.00   4.40    0.0    0.5    0.5    4.4   4.40   1.89    0.00    0.00
 1995 175    11     9    1.1    0.0    1.1   0.00   4.40    0.0    0.5    0.5    4.4   4.40   1.71    0.00    0.00
 1995 176    12    10    1.1    0.0    1.1   0.00   3.96    0.0    0.6    0.5    4.0   3.96   1.56    0.00    0.00
 1995 177    13    11    1.1    0.0    1.1   0.00   3.27    0.0    0.7    0.4    3.3   3.27   1.17    0.00    0.00
 1995 178    14    12    1.5    0.0    1.5   0.00   3.35    0.4    1.1    0.4    3.3   3.35   1.19    0.00    0.00
 1995 179    15    13    1.8    0.0    1.8   0.00   3.30    0.7    1.4    0.4    3.3   3.30   1.24    0.00    0.00
 1995 180    16    14    2.3    0.0    2.3   0.00   3.30    1.3    1.9    0.4    3.3   3.30   1.39    0.00    0.00
 1995 181    17    15    2.8    0.0    2.8   0.00   3.29    1.9    2.4    0.4    3.3   3.29   1.41    0.00    0.01
 1995 182    18    16    3.4    0.0    3.4   0.00   3.24    2.5    3.0    0.4    3.2   3.24   1.27    0.00    0.01
 1995 183    19    17    4.2    0.0    4.2   0.00   3.28    3.4    3.8    0.4    3.3   3.28   1.41    0.00    0.01
 1995 184    20    18    5.0    0.0    5.0   0.00   3.35    4.4    4.6    0.4    3.4   3.35   1.45    0.00    0.01
 1995 185    21    19    5.8    0.0    5.8   0.00   3.36    5.4    5.4    0.4    3.4   3.36   1.45    0.00    0.02
 1995 186    22    20    6.7    0.0    6.7   0.00   3.22    6.4    6.3    0.4    3.2   3.22   1.36    0.00    0.02
 1995 187    23    21    8.0    0.0    8.0   0.00   3.25    8.0    7.6    0.4    3.2   3.25   1.42    0.00    0.03
 1995 188    24    22   11.3    0.0   11.3   0.00   4.01   11.1   10.8    0.5    4.0   4.01   1.19    0.00    0.03
 1995 189    25    23   13.1    0.0   13.1   0.00   3.98   13.0   12.6    0.5    4.0   3.98   1.23    0.00    0.04
 1995 190    26    24   14.5    0.0   14.5   0.00   3.84   14.8   14.0    0.5    3.8   3.84   1.36    0.00    0.04
 1995 191    27    25   16.2    0.0   16.2   0.00   3.75   17.0   15.8    0.5    3.7   3.75   1.42    0.00    0.05
 1995 192    28    26   18.1    0.0   18.1   0.00   3.68   18.9   17.6    0.5    3.7   3.68   1.29    0.00    0.06
 1995 193    29    27   20.7    0.0   20.7   0.00   3.65   21.5   20.1    0.6    3.7   3.65   1.18    0.00    0.07
 1995 194    30    28   23.1    0.0   23.1   0.00   3.58   24.5   22.4    0.7    3.6   3.58   1.34    0.00    0.08
 1995 195    31    29   25.4    0.0   25.4   0.00   3.52   27.2   24.5    0.9    3.5   3.52   1.32    0.00    0.10
 1995 196    32    30   28.3    0.0   28.3   0.00   3.49   29.6   27.1    1.2    3.5   3.49   1.11    0.00    0.11
 1995 197    33    31   31.9    0.0   31.9   0.00   3.46   34.0   30.3    1.7    3.5   3.46   1.26    0.00    0.12
 1995 198    34    32   35.7    0.0   35.7   0.00   3.41   37.8   33.4    2.3    3.4   3.41   1.19    0.00    0.14
 1995 199    35    33   38.6    0.0   38.6   0.00   3.34   40.9   35.7    2.9    3.3   3.34   1.20    0.00    0.16
 1995 200    36    34   41.6    0.0   41.6   0.00   3.29   44.7   38.0    3.6    3.3   3.29   1.30    0.00    0.17
 1995 201    37    35   44.6    0.0   44.6   0.00   3.25   47.4   40.2    4.3    3.2   3.25   1.17    0.00    0.20
 1995 202    38    36   48.5    0.0   48.5   0.00   3.22   51.8   43.1    5.4    3.2   3.22   1.20    0.00    0.22
 1995 203    39    37   52.2    0.0   52.2   0.00   3.18   55.8   45.6    6.6    3.2   3.18   1.19    0.00    0.24
 1995 204    40    38   54.3    0.0   54.3   0.00   3.11   57.5   46.9    7.4    3.1   3.11   1.09    0.00    0.26
 1995 205    41    39   56.4    0.0   56.4   0.00   3.02   60.1   47.9    8.5    3.0   3.02   1.13    0.00    0.28
 1995 206    42    40   58.3    0.0   58.3   0.00   2.92   62.0   48.8    9.5    2.9   2.92   1.11    0.00    0.31
 1995 207    43    41   59.8    0.0   59.8   0.00   2.87   63.5   49.5   10.3    2.9   2.87   1.09    0.00    0.33
 1995 208    44    42   61.1    0.0   61.1   0.00   2.71   64.9   49.5   11.6    2.7   2.71   1.06    0.00    0.35
 1995 209    45    43   62.3    0.0   62.3   0.00   2.55   66.2   49.3   13.0    2.6   2.55   1.03    0.00    0.38
 1995 210    46    44   63.6    0.0   63.6   0.00   2.44   67.6   49.3   14.3    2.4   2.44   1.02    0.00    0.40
 1995 211    47    45   73.3    0.0   73.3   0.00   2.66   77.5   55.9   17.4    2.7   2.66   1.07    0.00    0.43
 1995 212    48    46   82.2    0.0   82.2   0.00   2.82   86.7   61.5   20.7    2.8   2.82   1.10    0.00    0.45
 1995 213    49    47   87.1    0.0   87.1   0.00   2.82   91.8   64.0   23.1    2.8   2.82   1.11    0.00    0.48
 1995 214    50    48   91.2    0.0   91.2   0.00   2.78   96.0   65.5   25.7    2.8   2.78   1.10    0.00    0.51
 1995 215    51    49   94.5    0.0   94.5   0.00   2.74   99.4   66.4   28.1    2.7   2.74   1.10    0.00    0.53
 1995 216    52    50   97.0    0.0   97.0   0.00   2.67  102.0   66.5   30.5    2.7   2.67   1.10    0.00    0.56
 1995 217    53    51   98.4    0.0   98.4   0.00   2.57  103.4   65.8   32.6    2.6   2.57   1.08    0.00    0.59
 1995 218    54    52   99.8    0.0   99.8   0.00   2.45  104.9   64.7   35.0    2.5   2.45   1.07    0.00    0.62
 1995 219    55    53  101.0    0.0  101.0   0.00   2.39  106.1   64.3   36.7    2.4   2.39   1.06    0.00    0.65
 1995 220    56    54  102.0    0.0  102.0   0.00   2.30  107.2   63.5   38.5    2.3   2.30   1.05    0.00    0.68
 1995 221    57    55  103.0    0.0  103.0   0.00   2.22  108.2   62.7   40.3    2.2   2.22   1.03    0.00    0.71
 1995 222    58    56  103.9    0.0  103.9   0.00   2.15  109.2   62.0   41.9    2.1   2.15   1.00    0.00    0.74
 1995 223    59    57  104.7    0.0  104.7   0.00   2.11  110.0   61.7   42.9    2.1   2.11   0.99    0.00    0.77
 1995 224    60    58  105.2    0.0  105.2   0.00   2.07  110.7   61.4   43.8    2.1   2.07   0.95    0.00    0.80
 1995 225    61    59  105.7    0.0  105.7   0.00   2.02  111.2   61.1   44.6    2.0   2.02   0.94    0.00    0.83
 1995 226    62    60  106.3    0.0  106.3   0.00   1.99  111.8   61.0   45.3    2.0   1.99   0.93    0.00    0.86
 1995 227    63    61  106.9    0.0  106.9   0.00   1.96  112.5   60.9   46.0    2.0   1.96   0.93    0.00    0.89
 1995 228    64    62  107.5    0.0  107.5   0.00   1.94  113.2   61.2   46.3    1.9   1.94   0.89    0.00    0.92
 1995 229    65    63  108.1    0.0  108.1   0.00   1.92  113.8   61.7   46.4    1.9   1.92   0.86    0.00    0.95
 1995 230    66    64  108.6    0.0  108.6   0.00   1.90  114.4   62.1   46.6    1.9   1.90   0.86    0.00    0.98
 1995 231    67    65  109.2    0.0  109.2   0.00   1.89  115.0   61.0   48.1    1.9   1.89   0.86    0.00    1.01
 1995 232    68    66  109.7    0.0  109.7   0.00   1.87  115.6   59.7   50.0    1.9   1.87   0.85    0.00    1.04
 1995 233    69    67  110.2    0.0  110.2   0.00   1.86  116.2   58.6   51.5    1.9   1.86   0.85    0.00    1.07
 1995 234    70    68  110.6    0.0  110.6   0.00   1.86  116.7   58.0   52.6    1.9   1.86   0.85    0.00    1.10
 1995 235    71    69  111.1    0.0  111.1   0.00   1.86  117.3   57.3   53.8    1.9   1.86   0.85    0.00    1.13
 1995 236    72    70  111.5    0.0  111.5   0.00   1.86  117.8   56.3   55.3    1.9   1.86   0.85    0.00    1.16
 1995 237    73    71  111.9    0.0  111.9   0.00   1.86  118.2   55.5   56.4    1.9   1.86   0.85    0.00    1.20
 1995 238    74    72  112.4    0.0  112.4   0.00   1.86  118.8   54.7   57.7    1.9   1.86   0.85    0.00    1.23
 1995 239    75    73  112.8    0.0  112.8   0.00   1.87  119.3   54.0   58.7    1.9   1.87   0.85    0.00    1.26
 1995 240    76    74  113.2    0.0  113.2   0.00   1.88  119.8   53.2   60.0    1.9   1.88   0.85    0.00    1.29
 1995 241    77    75  113.6    0.0  113.6   0.00   1.89  120.4   52.6   61.0    1.9   1.89   0.86    0.00    1.33
 1995 242    78    76  113.9    0.0  113.9   0.00   1.90  120.8   51.9   62.0    1.9   1.90   0.86    0.00    1.36
 1995 243    79    77  114.3    0.0  114.3   0.00   1.92  121.3   51.2   63.1    1.9   1.92   0.88    0.00    1.39
 1995 244    80    78  114.6    0.0  114.6   0.00   1.93  121.9   50.4   64.2    1.9   1.93   0.89    0.00    1.43
 1995 245    81    79  114.5    1.7  112.9   1.70   1.90  122.2   49.6   63.3    1.9   1.90   0.91    0.00    1.46
 1995 246    82    80  114.7    3.3  111.4   1.70   1.88  122.8   48.9   62.5    1.9   1.88   0.91    0.00    1.50
 1995 247    83    81  114.9    5.0  109.9   1.70   1.85  123.3   48.3   61.6    1.9   1.85   0.91    0.00    1.54
 1995 248    84    82  115.0    6.6  108.4   1.70   1.83  123.8   47.6   60.8    1.8   1.83   0.93    0.00    1.58
 1995 249    85    83  115.2    8.3  107.0   1.70   1.80  124.3   47.0   60.0    1.8   1.80   0.92    0.00    1.63
 1995 250    86    84  115.4    9.9  105.5   1.70   1.78  124.7   46.3   59.1    1.8   1.78   0.93    0.00    1.67
 1995 251    87    85  115.6   11.6  104.0   1.70   1.75  125.2   45.7   58.3    1.8   1.75   0.91    0.00    1.71
 1995 252    88    86  115.8   13.2  102.6   1.70   1.73  125.7   45.1   57.5    1.7   1.73   0.90    0.00    1.76
 1995 253    89    87  115.9   14.9  101.1   1.70   1.70  126.1   44.4   56.7    1.7   1.70   0.88    0.00    1.81
 1995 254    90    88  116.1   16.5   99.6   1.70   1.68  126.6   43.8   55.8    1.7   1.68   0.87    0.00    1.86
 1995 255    91    89  116.3   18.2   98.1   1.70   1.65  127.1   43.1   55.0    1.7   1.65   0.85    0.00    1.91
 1995 256    92    90  116.5   19.8   96.7   1.70   1.63  127.6   42.5   54.2    1.6   1.63   0.84    0.00    1.96
 1995 257    93    91  116.7   21.5   95.2   1.70   1.60  128.2   41.8   53.4    1.6   1.60   0.83    0.00    2.01
 1995 258    94    92  116.9   23.2   93.8   1.70   1.58  128.7   41.2   52.6    1.6   1.58   0.83    0.00    2.06
 1995 259    95    93  117.1   24.8   92.3   1.70   1.55  129.2   40.6   51.7    1.6   1.55   0.83    0.00    2.12
 1995 260    96    94  117.3   26.5   90.8   1.70   1.53  129.7   39.9   50.9    1.5   1.53   0.82    0.00    2.17
 1995 261    97    95  117.5   28.1   89.4   1.70   1.51  130.3   39.3   50.1    1.5   1.51   0.83    0.00    2.23
 1995 262    98    96  117.6   29.8   87.8   1.70   1.48  130.7   38.6   49.2    1.5   1.48   0.82    0.00    2.29
 1995 263    99    97  117.8   31.4   86.4   1.70   1.45  131.2   37.9   48.4    1.5   1.45   0.82    0.00    2.35
 1995 264   100    98  118.0   33.1   84.9   1.70   1.43  131.7   37.3   47.6    1.4   1.43   0.82    0.00    2.41
 1995 265   101    99  118.2   34.7   83.4   1.70   1.41  132.3   36.7   46.8    1.4   1.41   0.82    0.00    2.48
 1995 266   102   100  118.3   36.4   82.0   1.70   1.38  132.8   36.0   45.9    1.4   1.38   0.82    0.00    2.54
 1995 267   103   101  118.5   38.0   80.5   1.70   1.36  133.3   35.4   45.1    1.4   1.36   0.82    0.00    2.61
 1995 268   104   102  118.7   39.7   79.0   1.70   1.33  133.8   34.7   44.3    1.3   1.33   0.82    0.00    2.68
 1995 269   105   103  118.9   41.3   77.6   1.70   1.31  134.3   34.1   43.5    1.3   1.31   0.81    0.00    2.74
 1995 270   106   104  119.0   43.0   76.1   1.70   1.28  134.7   33.4   42.6    1.3   1.28   0.80    0.00    2.81
 1995 271   107   105  119.2   44.6   74.5   1.70   1.26  135.1   32.8   41.8    1.3   1.26   0.79    0.00    2.88
 1995 272   108   106  119.3   46.3   73.0   1.70   1.23  135.4   32.1   40.9    1.2   1.23   0.78    0.00    2.96
 1995 273   109   107  119.4   47.9   71.5   1.70   1.20  135.8   31.4   40.1    1.2   1.20   0.77    0.00    3.03
 1995 274   110   108  119.5   49.5   70.0   1.69   1.18  136.1   30.8   39.3    1.2   1.18   0.76    0.00    3.10
 1995 275   111   109  119.6   51.1   68.5   1.69   1.15  136.4   30.1   38.4    1.2   1.15   0.76    0.00    3.18
 1995 276   112   110  119.6   52.6   67.0   1.69   1.13  136.6   29.4   37.6    1.1   1.13   0.75    0.00    3.25
 1995 277   113   111  119.7   54.2   65.5   1.69   1.10  136.8   28.8   36.7    1.1   1.10   0.74    0.00    3.33
 1995 278   114   112  119.7   55.6   64.1   1.69   1.08  137.0   28.2   35.9    1.1   1.08   0.74    0.00    3.40
 1995 279   115   113  119.7   56.7   63.0   1.69   1.06  137.2   27.7   35.3    1.1   1.06   0.74    0.00    3.48
 1995 280   116   114  119.7   57.7   62.0   1.69   1.04  137.3   27.2   34.8    1.0   1.04   0.74    0.00    3.55
 1995 281   117   115  119.7   58.7   61.0   1.69   1.03  137.4   26.8   34.2    1.0   1.03   0.75    0.00    3.63
 1995 282   118   116  119.7   59.7   60.0   1.69   1.01  137.4   26.4   33.6    1.0   1.01   0.75    0.00    3.71
 1995 283   119   117  119.7   60.6   59.1   1.69   1.00  137.5   26.0   33.1    1.0   1.00   0.76    0.00    3.78
 1995 284   120   118  119.6   61.5   58.1   1.69   0.98  137.5   25.6   32.5    1.0   0.98   0.76    0.00    3.86
 1995 285   121   119  119.6   62.4   57.2   1.69   0.97  137.6   25.2   32.0    1.0   0.97   0.76    0.00    3.94
 1995 286   122   120  119.5   63.2   56.3   1.69   0.96  137.6   24.9   31.4    1.0   0.96   0.77    0.00    4.02
 1995 287   123   121  119.5   64.0   55.5   1.69   0.95  137.7   24.7   30.8    0.9   0.95   0.77    0.00    4.09
 1995 288   124   122  119.4   64.9   54.6   1.69   0.94  137.7   24.4   30.1    0.9   0.94   0.78    0.00    4.17
 1995 289   125   123  119.6   65.7   53.9   1.69   0.93  138.1   24.2   29.6    0.9   0.93   0.79    0.00    4.25
 1995 290   126   124  119.6   67.2   52.4   1.69   0.90  138.2   23.4   29.0    0.9   0.90   0.78    0.00    4.32
 1995 291   127   125  119.5   68.1   51.4   1.69   0.88  138.2   23.0   28.4    0.9   0.88   0.79    0.00    4.40
 1995 292   128   126  119.5   68.1   51.4   1.69   0.88  138.2   23.0   28.4    0.9   0.88   0.79    0.00    4.40
 1995 293   129   127  119.5   68.1   51.4   1.69   0.88  138.2   23.0   28.4    0.9   0.88   0.79    0.00    4.40
 1995 294   130   128  119.5   68.1   51.4   1.69   0.88  138.2   23.0   28.4    0.9   0.88   0.79    0.00    4.40
 1995 295   131   129  119.5   68.1   51.4   1.69   0.88  138.2   23.0   28.4    0.9   0.88   0.79    0.00    4.40

*DSSAT Cropping System Model Ver. 4.7.5.008 -release  JAN 15, 2021 21:49:57

*RUN   6        : ERiMA DCC1                MZCER047 ETMZpolo    1
 MODEL          : MZCER047 - Maize
 EXPERIMENT     : ETMZpolo SN MELKSSAL
 DATA PATH      : C:\Users\kpodo\Documents\GitHub\ET_DSS_hist_Eunjin\TEST\
 TREATMENT  1   : ERiMA DCC1                MZCER047
  
@YEAR DOY   DAS   DAP   CNAD   GNAD   VNAD   GN%D   VN%D   NUPC   LNAD   SNAD   LN%D   SN%D   RN%D   SNN0C   SNN1C
 1996 166     2     0    0.0    0.0    0.0   0.00   0.00    0.0    0.0    0.0    0.0   0.00   0.00    0.00    0.00
 1996 167     3     1    0.0    0.0    0.0   0.00   0.00    0.0    0.0    0.0    0.0   0.00   0.00    0.00    0.00
 1996 168     4     2    0.0    0.0    0.0   0.00   0.00    0.0    0.0    0.0    0.0   0.00   0.00    0.00    0.00
 1996 169     5     3    0.0    0.0    0.0   0.00   0.00    0.0    0.0    0.0    0.0   0.00   0.00    0.00    0.00
[...]
 2017 274   110   108  112.4   34.5   77.9   1.58   1.27  125.8   32.8   45.1    1.3   1.27   0.65    0.00    3.07
 2017 275   111   109  112.5   35.9   76.6   1.58   1.25  126.2   32.3   44.3    1.2   1.25   0.65    0.00    3.13
 2017 276   112   110  112.7   37.4   75.3   1.58   1.23  126.5   31.7   43.6    1.2   1.23   0.64    0.00    3.19
 2017 277   113   111  112.8   38.8   74.0   1.57   1.20  126.7   31.2   42.8    1.2   1.20   0.64    0.00    3.25
 2017 278   114   112  112.9   40.2   72.7   1.57   1.18  127.0   30.6   42.0    1.2   1.18   0.63    0.00    3.31
 2017 279   115   113  112.9   41.6   71.3   1.57   1.16  127.2   30.1   41.3    1.2   1.16   0.63    0.00    3.37
 2017 280   116   114  113.0   43.0   70.0   1.56   1.14  127.4   29.5   40.5    1.1   1.14   0.62    0.00    3.43
 2017 281   117   115  113.0   44.2   68.8   1.56   1.12  127.5   29.0   39.8    1.1   1.12   0.62    0.00    3.49
 2017 282   118   116  113.1   45.3   67.8   1.56   1.10  127.7   28.6   39.2    1.1   1.10   0.62    0.00    3.55
 2017 283   119   117  113.1   46.3   66.8   1.56   1.09  127.8   28.2   38.7    1.1   1.09   0.62    0.00    3.62
 2017 284   120   118  113.2   47.2   66.1   1.56   1.08  128.1   27.8   38.2    1.1   1.08   0.63    0.00    3.68
 2017 285   121   119  113.2   48.5   64.7   1.56   1.05  128.2   27.3   37.4    1.1   1.05   0.62    0.00    3.74
 2017 286   122   120  113.2   49.3   63.9   1.56   1.04  128.2   26.9   36.9    1.0   1.04   0.62    0.00    3.80
 2017 287   123   121  113.2   50.1   63.0   1.56   1.03  128.2   26.6   36.4    1.0   1.03   0.62    0.00    3.87
 2017 288   124   122  113.1   50.9   62.2   1.56   1.02  128.3   26.3   35.9    1.0   1.02   0.63    0.00    3.93
 2017 289   125   123  113.1   51.7   61.4   1.56   1.01  128.3   26.0   35.4    1.0   1.01   0.63    0.00    3.99
 2017 290   126   124  113.0   52.4   60.6   1.56   1.00  128.3   25.8   34.8    1.0   1.00   0.63    0.00    4.05
 2017 291   127   125  113.0   53.1   59.9   1.56   0.99  128.3   25.6   34.2    1.0   0.99   0.64    0.00    4.12
 2017 292   128   126  112.9   53.9   59.1   1.56   0.98  128.3   25.4   33.7    1.0   0.98   0.64    0.00    4.18
 2017 293   129   127  112.9   54.6   58.3   1.56   0.97  128.3   25.2   33.1    1.0   0.97   0.64    0.00    4.24
 2017 294   130   128  112.8   55.3   57.5   1.56   0.97  128.3   25.0   32.5    1.0   0.97   0.65    0.00    4.30
 2017 295   131   129  112.8   56.0   56.8   1.56   0.96  128.4   24.8   32.0    1.0   0.96   0.65    0.00    4.37
 2017 296   132   130  112.7   56.7   56.0   1.56   0.95  128.4   24.6   31.4    1.0   0.95   0.65    0.00    4.43
 2017 297   133   131  112.7   57.4   55.3   1.56   0.94  128.4   24.4   30.8    0.9   0.94   0.65    0.00    4.49
 2017 298   134   132  112.6   58.1   54.5   1.56   0.94  128.4   24.3   30.2    0.9   0.94   0.66    0.00    4.55
 2017 299   135   133  112.6   58.8   53.8   1.56   0.93  128.4   24.1   29.6    0.9   0.93   0.66    0.00    4.62
 2017 300   136   134  112.6   59.5   53.1   1.56   0.92  128.4   24.0   29.1    0.9   0.92   0.66    0.00    4.62
 2017 301   137   135  112.6   60.2   52.3   1.56   0.92  128.4   23.8   28.5    0.9   0.92   0.67    0.00    4.62
 2017 302   138   136  112.6   60.9   51.6   1.56   0.91  128.4   23.7   28.0    0.9   0.91   0.67    0.00    4.62
 2017 303   139   137  112.6   61.6   50.9   1.56   0.91  128.4   23.5   27.4    0.9   0.91   0.67    0.00    4.62
 2017 304   140   138  112.6   62.4   50.2   1.56   0.90  128.4   23.4   26.8    0.9   0.90   0.68    0.00    4.62
 2017 305   141   139  112.6   63.1   49.5   1.56   0.90  128.4   23.2   26.3    0.9   0.90   0.68    0.00    4.62
 2017 306   142   140  112.6   63.8   48.8   1.56   0.89  128.4   23.1   25.7    0.9   0.89   0.68    0.00    4.62
 2017 307   143   141  112.6   64.5   48.1   1.56   0.89  128.4   22.9   25.1    0.9   0.89   0.69    0.00    4.62
 2017 308   144   142  112.6   64.5   48.1   1.56   0.89  128.4   22.9   25.1    0.9   0.89   0.69    0.00    4.62
 2017 309   145   143  112.6   64.5   48.1   1.56   0.89  128.4   22.9   25.1    0.9   0.89   0.69    0.00    4.62

*DSSAT Cropping System Model Ver. 4.7.5.008 -release  JAN 15, 2021 21:49:57

*RUN  28        : ERiMA DCC1                MZCER047 ETMZpolo    1
 MODEL          : MZCER047 - Maize
 EXPERIMENT     : ETMZpolo SN MELKSSAL
 DATA PATH      : C:\Users\kpodo\Documents\GitHub\ET_DSS_hist_Eunjin\TEST\
 TREATMENT  1   : ERiMA DCC1                MZCER047
  
@YEAR DOY   DAS   DAP   CNAD   GNAD   VNAD   GN%D   VN%D   NUPC   LNAD   SNAD   LN%D   SN%D   RN%D   SNN0C   SNN1C
 2018 166     2     0    0.0    0.0    0.0   0.00   0.00    0.0    0.0    0.0    0.0   0.00   0.00    0.00    0.00
 2018 167     3     1    0.0    0.0    0.0   0.00   0.00    0.0    0.0    0.0    0.0   0.00   0.00    0.00    0.00
 2018 168     4     2    0.0    0.0    0.0   0.00   0.00    0.0    0.0    0.0    0.0   0.00   0.00    0.00    0.00
 2018 169     5     3    0.0    0.0    0.0   0.00   0.00    0.0    0.0    0.0    0.0   0.00   0.00    0.00    0.00
 2018 170     6     4    0.0    0.0    0.0   0.00   0.00    0.0    0.0    0.0    0.0   0.00   0.00    0.00    0.00
 2018 171     7     5    0.0    0.0    0.0   0.00   0.00    0.0    0.0    0.0    0.0   0.00   0.00    0.00    0.00
 2018 172     8     6    1.1    0.0    1.1   0.00   4.40    0.0    0.5    0.5    4.4   4.40   2.20    0.00    0.00
 2018 173     9     7    1.1    0.0    1.1   0.00   4.40    0.0    0.5    0.5    4.4   4.40   2.16    0.00    0.00
 2018 174    10     8    1.1    0.0    1.1   0.00   4.40    0.0    0.5    0.5    4.4   4.40   2.08    0.00    0.00
 2018 175    11     9    1.1    0.0    1.1   0.00   4.40    0.0    0.5    0.5    4.4   4.40   1.96    0.00    0.00
 2018 176    12    10    1.1    0.0    1.1   0.00   4.40    0.0    0.5    0.5    4.4   4.40   1.83    0.00    0.00
 2018 177    13    11    1.1    0.0    1.1   0.00   4.40    0.0    0.5    0.5    4.4   4.40   1.66    0.00    0.00
 2018 178    14    12    1.1    0.0    1.1   0.00   4.40    0.0    0.5    0.5    4.4   4.40   1.46    0.00    0.00
 2018 179    15    13    1.1    0.0    1.1   0.00   3.57    0.0    0.6    0.4    3.6   3.57   1.40    0.00    0.00
 2018 180    16    14    1.2    0.0    1.2   0.00   3.42    0.2    0.8    0.4    3.4   3.42   1.23    0.00    0.00
 2018 181    17    15    1.5    0.0    1.5   0.00   3.42    0.5    1.1    0.4    3.4   3.42   1.31    0.00    0.00
 2018 182    18    16    1.9    0.0    1.9   0.00   3.43    0.9    1.4    0.4    3.4   3.43   1.34    0.00    0.00
 2018 183    19    17    2.2    0.0    2.2   0.00   3.44    1.3    1.8    0.4    3.4   3.44   1.28    0.00    0.01
 2018 184    20    18    2.6    0.0    2.6   0.00   3.44    1.8    2.2    0.4    3.4   3.44   1.27    0.00    0.01
 2018 185    21    19    3.1    0.0    3.1   0.00   3.42    2.4    2.7    0.4    3.4   3.42   1.41    0.00    0.01
 2018 186    22    20    3.6    0.0    3.6   0.00   3.40    3.0    3.2    0.4    3.4   3.40   1.40    0.00    0.01
 2018 187    23    21    4.2    0.0    4.2   0.00   3.39    3.7    3.8    0.4    3.4   3.39   1.38    0.00    0.02
 2018 188    24    22    4.9    0.0    4.9   0.00   3.38    4.6    4.5    0.4    3.4   3.38   1.40    0.00    0.02
 2018 189    25    23    5.6    0.0    5.6   0.00   3.56    5.5    5.2    0.4    3.6   3.56   1.43    0.00    0.03
 2018 190    26    24    6.1    0.0    6.1   0.00   3.34    6.1    5.7    0.4    3.3   3.34   1.28    0.00    0.03
 2018 191    27    25    7.0    0.0    7.0   0.00   3.30    7.1    6.7    0.4    3.3   3.30   1.29    0.00    0.04
 2018 192    28    26    9.9    0.0    9.9   0.00   4.02   10.2    9.4    0.5    4.0   4.02   1.30    0.00    0.04
 2018 193    29    27   11.1    0.0   11.1   0.00   3.95   11.6   10.6    0.5    3.9   3.95   1.30    0.00    0.05
 2018 194    30    28   12.3    0.0   12.3   0.00   3.83   12.9   11.8    0.5    3.8   3.83   1.27    0.00    0.06
 2018 195    31    29   13.5    0.0   13.5   0.00   3.73   14.4   13.1    0.5    3.7   3.73   1.26    0.00    0.07
 2018 196    32    30   15.1    0.0   15.1   0.00   3.68   16.2   14.6    0.5    3.7   3.68   1.27    0.00    0.08
 2018 197    33    31   16.8    0.0   16.8   0.00   3.64   18.2   16.2    0.5    3.6   3.64   1.29    0.00    0.09
 2018 198    34    32   18.5    0.0   18.5   0.00   3.59   20.1   17.9    0.6    3.6   3.59   1.22    0.00    0.11
 2018 199    35    33   20.5    0.0   20.5   0.00   3.55   22.5   19.8    0.7    3.5   3.55   1.27    0.00    0.12
 2018 200    36    34   22.4    0.0   22.4   0.00   3.50   24.9   21.5    0.9    3.5   3.50   1.29    0.00    0.14
 2018 201    37    35   24.6    0.0   24.6   0.00   3.46   26.9   23.5    1.1    3.5   3.46   1.17    0.00    0.15
 2018 202    38    36   27.5    0.0   27.5   0.00   3.44   29.8   26.0    1.5    3.4   3.44   1.13    0.00    0.17
 2018 203    39    37   30.3    0.0   30.3   0.00   3.39   33.2   28.4    1.9    3.4   3.39   1.22    0.00    0.19
 2018 204    40    38   33.1    0.0   33.1   0.00   3.35   36.0   30.7    2.4    3.3   3.35   1.14    0.00    0.21
 2018 205    41    39   36.1    0.0   36.1   0.00   3.31   39.9   33.1    3.0    3.3   3.31   1.28    0.00    0.23
 2018 206    42    40   39.1    0.0   39.1   0.00   3.27   42.9   35.4    3.7    3.3   3.27   1.19    0.00    0.25
 2018 207    43    41   42.2    0.0   42.2   0.00   3.23   46.0   37.7    4.5    3.2   3.23   1.13    0.00    0.28
 2018 208    44    42   45.4    0.0   45.4   0.00   3.19   49.7   40.0    5.5    3.2   3.19   1.18    0.00    0.30
 2018 209    45    43   48.8    0.0   48.8   0.00   3.15   53.3   42.3    6.5    3.1   3.15   1.17    0.00    0.33
 2018 210    46    44   52.2    0.0   52.2   0.00   3.11   57.0   44.5    7.7    3.1   3.11   1.16    0.00    0.36
 2018 211    47    45   55.8    0.0   55.8   0.00   3.08   60.7   46.7    9.0    3.1   3.08   1.15    0.00    0.39
 2018 212    48    46   59.5    0.0   59.5   0.00   3.04   65.3   49.0   10.5    3.0   3.04   1.22    0.00    0.41
 2018 213    49    47   63.3    0.0   63.3   0.00   3.01   69.2   51.2   12.1    3.0   3.01   1.17    0.00    0.45
 2018 214    50    48   67.1    0.0   67.1   0.00   2.97   72.9   53.3   13.8    3.0   2.97   1.11    0.00    0.48
 2018 215    51    49   71.1    0.0   71.1   0.00   2.94   77.0   55.4   15.7    2.9   2.94   1.10    0.00    0.52
 2018 216    52    50   75.3    0.0   75.3   0.00   2.91   81.3   57.6   17.7    2.9   2.91   1.10    0.00    0.55
 2018 217    53    51   79.5    0.0   79.5   0.00   2.88   86.3   59.7   19.8    2.9   2.88   1.16    0.00    0.58
 2018 218    54    52   85.0    0.0   85.0   0.00   2.86   91.5   62.9   22.1    2.9   2.86   1.10    0.00    0.62
 2018 219    55    53   90.9    0.0   90.9   0.00   2.82   97.5   65.6   25.3    2.8   2.82   1.10    0.00    0.66
 2018 220    56    54   94.0    0.0   94.0   0.00   2.73  100.8   66.1   27.9    2.7   2.73   1.10    0.00    0.69
 2018 221    57    55   96.1    0.0   96.1   0.00   2.65  102.9   66.1   30.1    2.6   2.65   1.09    0.00    0.73
 2018 222    58    56   97.7    0.0   97.7   0.00   2.54  104.6   65.4   32.3    2.5   2.54   1.08    0.00    0.77
 2018 223    59    57   99.1    0.0   99.1   0.00   2.45  106.0   64.8   34.3    2.4   2.45   1.07    0.00    0.80
 2018 224    60    58  100.3    0.0  100.3   0.00   2.36  107.3   64.1   36.2    2.4   2.36   1.06    0.00    0.84
 2018 225    61    59  101.3    0.0  101.3   0.00   2.28  108.4   63.4   37.9    2.3   2.28   1.02    0.00    0.88
 2018 226    62    60  102.3    0.0  102.3   0.00   2.21  109.5   62.9   39.4    2.2   2.21   0.99    0.00    0.92
 2018 227    63    61  103.2    0.0  103.2   0.00   2.16  110.5   62.5   40.7    2.2   2.16   0.96    0.00    0.95
 2018 228    64    62  104.3    0.0  104.3   0.00   2.12  111.7   62.4   41.9    2.1   2.12   0.92    0.00    0.99
 2018 229    65    63  105.1    0.0  105.1   0.00   2.08  112.7   62.1   43.0    2.1   2.08   0.92    0.00    1.03
 2018 230    66    64  106.0    0.0  106.0   0.00   2.04  113.6   61.9   44.1    2.0   2.04   0.92    0.00    1.07
 2018 231    67    65  106.7    0.0  106.7   0.00   2.00  114.4   61.7   45.0    2.0   2.00   0.92    0.00    1.11
 2018 232    68    66  107.5    0.0  107.5   0.00   1.98  115.3   61.7   45.8    2.0   1.98   0.91    0.00    1.15
 2018 233    69    67  108.2    0.0  108.2   0.00   1.95  116.1   61.9   46.4    2.0   1.95   0.89    0.00    1.19
 2018 234    70    68  108.9    0.0  108.9   0.00   1.94  116.9   62.2   46.6    1.9   1.94   0.86    0.00    1.23
 2018 235    71    69  109.5    0.0  109.5   0.00   1.92  117.6   62.4   47.1    1.9   1.92   0.86    0.00    1.27
 2018 236    72    70  110.1    0.0  110.1   0.00   1.91  118.3   62.7   47.4    1.9   1.91   0.85    0.00    1.31
 2018 237    73    71  110.6    0.0  110.6   0.00   1.89  118.9   63.2   47.4    1.9   1.89   0.84    0.00    1.35
 2018 238    74    72  111.3    0.0  111.3   0.00   1.87  119.7   63.2   48.1    1.9   1.87   0.82    0.00    1.39
 2018 239    75    73  111.9    0.0  111.9   0.00   1.86  120.4   62.3   49.5    1.9   1.86   0.82    0.00    1.43
 2018 240    76    74  112.4    0.0  112.4   0.00   1.85  121.0   61.3   51.1    1.9   1.85   0.82    0.00    1.48
 2018 241    77    75  112.8    0.0  112.8   0.00   1.84  121.5   60.3   52.5    1.8   1.84   0.82    0.00    1.52
 2018 242    78    76  113.2    0.0  113.2   0.00   1.84  121.9   59.4   53.8    1.8   1.84   0.82    0.00    1.56
 2018 243    79    77  113.6    0.0  113.6   0.00   1.84  122.5   58.5   55.1    1.8   1.84   0.83    0.00    1.60
 2018 244    80    78  114.1    0.0  114.1   0.00   1.83  123.1   57.7   56.5    1.8   1.83   0.83    0.00    1.65
 2018 245    81    79  114.6    0.0  114.6   0.00   1.83  123.7   56.8   57.9    1.8   1.83   0.83    0.00    1.69
 2018 246    82    80  115.1    0.0  115.1   0.00   1.83  124.3   55.8   59.3    1.8   1.83   0.83    0.00    1.73
 2018 247    83    81  115.6    0.0  115.6   0.00   1.83  124.8   55.0   60.6    1.8   1.83   0.83    0.00    1.78
 2018 248    84    82  116.0    0.0  116.0   0.00   1.83  125.4   54.2   61.8    1.8   1.83   0.83    0.00    1.82
 2018 249    85    83  116.4    0.0  116.4   0.00   1.84  125.9   53.4   63.0    1.8   1.84   0.84    0.00    1.87
 2018 250    86    84  116.8    0.0  116.8   0.00   1.85  126.4   52.7   64.1    1.8   1.85   0.84    0.00    1.91
 2018 251    87    85  117.1    0.0  117.1   0.00   1.86  126.9   51.8   65.3    1.9   1.86   0.85    0.00    1.96
 2018 252    88    86  117.5    0.0  117.5   0.00   1.87  127.4   51.0   66.5    1.9   1.87   0.85    0.00    2.00
 2018 253    89    87  117.8    0.0  117.8   0.00   1.88  127.9   50.2   67.6    1.9   1.88   0.86    0.00    2.05
 2018 254    90    88  118.0    0.0  118.0   0.00   1.89  128.4   49.4   68.6    1.9   1.89   0.87    0.00    2.09
 2018 255    91    89  118.2    1.7  116.5   1.70   1.87  128.8   48.7   67.7    1.9   1.87   0.86    0.00    2.14
 2018 256    92    90  118.3    3.4  114.9   1.70   1.84  129.2   48.1   66.8    1.8   1.84   0.85    0.00    2.19
 2018 257    93    91  118.5    5.1  113.4   1.70   1.82  129.5   47.5   65.9    1.8   1.82   0.84    0.00    2.24
 2018 258    94    92  118.7    6.8  111.9   1.70   1.79  130.0   46.8   65.1    1.8   1.79   0.83    0.00    2.29
 2018 259    95    93  118.9    8.5  110.4   1.70   1.77  130.4   46.2   64.2    1.8   1.77   0.81    0.00    2.34
 2018 260    96    94  119.0   10.2  108.8   1.70   1.74  130.7   45.5   63.2    1.7   1.74   0.80    0.00    2.40
 2018 261    97    95  119.1   11.9  107.2   1.70   1.72  131.1   44.9   62.3    1.7   1.72   0.80    0.00    2.45
 2018 262    98    96  119.3   13.6  105.7   1.70   1.69  131.6   44.2   61.5    1.7   1.69   0.79    0.00    2.50
 2018 263    99    97  119.5   15.3  104.2   1.70   1.67  132.0   43.6   60.6    1.7   1.67   0.78    0.00    2.56
 2018 264   100    98  119.7   17.0  102.7   1.70   1.65  132.5   43.0   59.7    1.6   1.65   0.77    0.00    2.62
 2018 265   101    99  119.9   18.7  101.1   1.70   1.62  132.9   42.3   58.8    1.6   1.62   0.77    0.00    2.67
 2018 266   102   100  120.0   20.4   99.6   1.70   1.60  133.3   41.7   57.9    1.6   1.60   0.76    0.00    2.73
 2018 267   103   101  120.2   22.1   98.1   1.70   1.57  133.7   41.0   57.0    1.6   1.57   0.76    0.00    2.79
 2018 268   104   102  120.3   23.8   96.5   1.70   1.55  134.1   40.4   56.1    1.5   1.55   0.75    0.00    2.85
 2018 269   105   103  120.4   25.5   95.0   1.70   1.52  134.4   39.7   55.2    1.5   1.52   0.74    0.00    2.91
 2018 270   106   104  120.5   27.1   93.4   1.69   1.50  134.7   39.1   54.3    1.5   1.50   0.73    0.00    2.97
 2018 271   107   105  120.6   28.8   91.8   1.69   1.47  134.9   38.4   53.4    1.5   1.47   0.72    0.00    3.04
 2018 272   108   106  120.7   30.5   90.2   1.69   1.45  135.1   37.8   52.5    1.4   1.45   0.71    0.00    3.10
 2018 273   109   107  120.7   31.9   88.9   1.69   1.42  135.3   37.2   51.7    1.4   1.42   0.70    0.00    3.16
 2018 274   110   108  120.9   33.1   87.8   1.70   1.41  135.6   36.7   51.0    1.4   1.41   0.71    0.00    3.23
 2018 275   111   109  120.9   34.7   86.2   1.69   1.38  135.8   36.1   50.1    1.4   1.38   0.70    0.00    3.29
 2018 276   112   110  120.9   35.8   85.1   1.69   1.36  135.9   35.6   49.5    1.4   1.36   0.70    0.00    3.36
 2018 277   113   111  120.9   36.8   84.0   1.70   1.35  136.0   35.2   48.9    1.3   1.35   0.70    0.00    3.42
 2018 278   114   112  120.9   37.8   83.0   1.70   1.33  136.0   34.7   48.3    1.3   1.33   0.71    0.00    3.49
 2018 279   115   113  120.8   38.8   82.0   1.70   1.31  136.1   34.3   47.7    1.3   1.31   0.71    0.00    3.55
 2018 280   116   114  120.8   39.8   81.0   1.70   1.30  136.1   34.0   47.1    1.3   1.30   0.71    0.00    3.62
 2018 281   117   115  120.7   40.7   80.0   1.70   1.29  136.1   33.7   46.4    1.3   1.29   0.72    0.00    3.68
 2018 282   118   116  120.7   41.6   79.1   1.71   1.28  136.1   33.4   45.7    1.3   1.28   0.72    0.00    3.75
 2018 283   119   117  120.6   42.4   78.2   1.71   1.27  136.1   33.2   45.0    1.3   1.27   0.72    0.00    3.81
 2018 284   120   118  120.6   43.3   77.3   1.71   1.26  136.1   33.0   44.3    1.3   1.26   0.73    0.00    3.88
 2018 285   121   119  120.5   44.2   76.3   1.71   1.25  136.2   32.8   43.6    1.3   1.25   0.73    0.00    3.94
 2018 286   122   120  120.5   45.1   75.4   1.71   1.25  136.2   32.5   42.9    1.2   1.25   0.73    0.00    4.01
 2018 287   123   121  120.4   45.9   74.5   1.72   1.24  136.2   32.3   42.2    1.2   1.24   0.74    0.00    4.07
 2018 288   124   122  120.4   46.8   73.6   1.72   1.23  136.2   32.1   41.5    1.2   1.23   0.74    0.00    4.14
 2018 289   125   123  120.4   47.7   72.7   1.72   1.22  136.2   31.9   40.8    1.2   1.22   0.75    0.00    4.14
 2018 290   126   124  120.4   48.6   71.8   1.72   1.22  136.2   31.8   40.0    1.2   1.22   0.75    0.00    4.14
 2018 291   127   125  120.4   49.5   71.0   1.72   1.21  136.2   31.7   39.3    1.2   1.21   0.75    0.00    4.14
 2018 292   128   126  120.4   50.3   70.1   1.73   1.21  136.2   31.5   38.5    1.2   1.21   0.76    0.00    4.14
 2018 293   129   127  120.4   51.2   69.2   1.73   1.20  136.2   31.4   37.8    1.2   1.20   0.76    0.00    4.14
 2018 294   130   128  120.4   52.1   68.3   1.73   1.20  136.2   31.2   37.0    1.2   1.20   0.77    0.00    4.14
 2018 295   131   129  120.4   53.0   67.4   1.74   1.19  136.2   31.1   36.3    1.2   1.19   0.77    0.00    4.14
 2018 296   132   130  120.4   53.9   66.5   1.74   1.18  136.2   30.9   35.6    1.2   1.18   0.77    0.00    4.14
 2018 297   133   131  120.4   53.9   66.5   1.74   1.18  136.2   30.9   35.6    1.2   1.18   0.77    0.00    4.14
 2018 298   134   132  120.4   53.9   66.5   1.74   1.18  136.2   30.9   35.6    1.2   1.18   0.77    0.00    4.14
