*GROWTH ASPECTS OUTPUT FILE

*DSSAT Cropping System Model Ver. 4.7.5.008 -release  JAN 15, 2021 21:49:57

*RUN   1        : ERiMA DCC1                MZCER047 ETMZpolo    1
 MODEL          : MZCER047 - Maize
 EXPERIMENT     : ETMZpolo SN MELKSSAL
 DATA PATH      : C:\Users\kpodo\Documents\GitHub\ET_DSS_hist_Eunjin\TEST\
 TREATMENT  1   : ERiMA DCC1                MZCER047
  
!                                                                                                                                                                                                                                      Root Dens. (cm/cm3) by soil depth (cm):
!                                                                                                                                                                                                                                      0-5    5-15   15-20   20-35   35-50   50-65   65-81   81-97  97-118 118-200
@YEAR DOY   DAS   DAP   L#SD   GSTD   LAID   LWAD   SWAD   GWAD   RWAD   VWAD   CWAD   G#AD   GWGD   HIAD   PWAD   P#AD   WSPD   WSGD   NSTD   EWSD  PST1A  PST2A   KSTD   LN%D   SH%D   HIPD   PWDD   PWTD     SLAD   CHTD   CWID   RDPD    RL1D    RL2D    RL3D    RL4D    RL5D    RL6D    RL7D    RL8D    RL9D   RL10D   CDAD   LDAD   SDAD   SNW0C   SNW1C  DTTD
 1991 166     2     0    0.0      0   0.00      0      0      0      0      0      0      0    0.0  0.000      0      0  0.000  0.000  0.000  0.000  0.000  0.000  0.000   0.00   0.00   0.00      0      0      0.0   0.00   0.00   0.03    0.00    0.00    0.00    0.00    0.00    0.00    0.00    0.00    0.00    0.00      0      0      0       0       0 17.11
 1991 167     3     1    0.0      0   0.00      0      0      0      0      0      0      0    0.0  0.000      0      0  0.000  0.000  0.000  0.000  0.000  0.000  0.000   0.00   0.00   0.00      0      0      0.0   0.00   0.00   0.05    0.00    0.00    0.00    0.00    0.00    0.00    0.00    0.00    0.00    0.00      0      0      0       0       0 16.50
 1991 168     4     2    0.0      0   0.00      0      0      0      0      0      0      0    0.0  0.000      0      0  0.000  0.000  0.000  0.000  0.000  0.000  0.000   0.00   0.00   0.00      0      0      0.0   0.00   0.00   0.08    0.00    0.00    0.00    0.00    0.00    0.00    0.00    0.00    0.00    0.00      0      0      0       0       0 16.87
 1991 169     5     3    0.0      0   0.00      0      0      0      0      0      0      0    0.0  0.000      0      0  0.000  0.000  0.000  0.000  0.000  0.000  0.000   0.00   0.00   0.00      0      0      0.0   0.00   0.00   0.10    0.00    0.00    0.00    0.00    0.00    0.00    0.00    0.00    0.00    0.00      0      0      0       0       0 17.55
 1991 170     6     4    0.0      0   0.00      0      0      0      0      0      0      0    0.0  0.000      0      0  0.000  0.000  0.000  0.000  0.000  0.000  0.000   0.00   0.00   0.00      0      0      0.0   0.00   0.00   0.12    0.00    0.00    0.00    0.00    0.00    0.00    0.00    0.00    0.00    0.00      0      0      0       0       0 15.30
 1991 171     7     5    2.0      1   0.00     12     12      0     12     24     24      0    0.0  0.000      0      0  0.000  0.000  0.012  0.000  0.000  0.000  0.000   4.40   0.00   0.00      0      0     25.0   0.00   0.00   0.14    0.24    0.09    0.00    0.00    0.00    0.00    0.00    0.00    0.00    0.00      0      0      0       0       0 13.47
 1991 172     8     6    2.0      1   0.01     12     12      0     12     24     24      0    0.0  0.000      0      0  0.000  0.000  0.014  0.000  0.000  0.000  0.000   4.40   0.00   0.00      0      0     52.6   0.00   0.00   0.15    0.24    0.09    0.00    0.00    0.00    0.00    0.00    0.00    0.00    0.00      0      0      0       0       0 15.38
 1991 173     9     7    3.0      1   0.01     12     12      0     13     24     24      0    0.0  0.000      0      0  0.000  0.000  0.008  0.000  0.000  0.000  0.000   4.40   0.00   0.00      0      0     83.6   0.01   0.00   0.17    0.23    0.10    0.00    0.00    0.00    0.00    0.00    0.00    0.00    0.00      0      0      0       0       0 15.11
 1991 174    10     8    3.0      1   0.01     12     12      0     14     24     24      0    0.0  0.000      0      0  0.000  0.000  0.001  0.000  0.000  0.000  0.000   4.40   0.00   0.00      0      0    120.6   0.01   0.00   0.18    0.23    0.12    0.01    0.00    0.00    0.00    0.00    0.00    0.00    0.00      0      0      0       0       0 16.08
 1991 175    11     9    4.0      1   0.03     12     12      0     15     24     24      0    0.0  0.000      0      0  0.000  0.000  0.000  0.000  0.000  0.000  0.000   4.40   0.00   0.00      0      0    234.5   0.02   0.00   0.20    0.23    0.13    0.03    0.00    0.00    0.00    0.00    0.00    0.00    0.00      0      0      0       0       0 15.10
 1991 176    12    10    4.0      1   0.04     13     12      0     17     25     25      0    0.0  0.000      0      0  0.000  0.120  0.000  0.000  0.000  0.000  0.000   4.19   0.00   0.00      0      0    337.0   0.02   0.00   0.22    0.23    0.16    0.06    0.00    0.00    0.00    0.00    0.00    0.00    0.00      0      0      0       0       0 17.07
 1991 177    13    11    4.0      1   0.06     18     12      0     19     30     30      0    0.0  0.000      0      0  0.000  0.163  0.000  0.000  0.000  0.000  0.000   3.54   0.00   0.00      0      0    316.9   0.03   0.00   0.23    0.23    0.18    0.08    0.00    0.00    0.00    0.00    0.00    0.00    0.00      0      0      0       0       0 11.96
 1991 178    14    12    5.0      1   0.07     24     12      0     20     36     36      0    0.0  0.000      0      0  0.000  0.281  0.004  0.000  0.000  0.000  0.000   3.52   0.00   0.00      0      0    298.9   0.04   0.00   0.24    0.22    0.20    0.10    0.00    0.00    0.00    0.00    0.00    0.00    0.00      0      0      0       0       0 14.61
 1991 179    15    13    5.0      1   0.08     29     12      0     23     41     41      0    0.0  0.000      0      0  0.281  0.521  0.000  0.000  0.000  0.000  0.000   3.69   0.00   0.00      0      0    284.7   0.05   0.00   0.25    0.25    0.22    0.13    0.00    0.00    0.00    0.00    0.00    0.00    0.00      0      0      0       0       0 14.93
 1991 180    16    14    6.0      1   0.10     38     12      0     25     50     50      0    0.0  0.000      0      0  0.000  0.000  0.000  0.000  0.000  0.000  0.000   3.32   0.00   0.00      0      0    269.6   0.06   0.00   0.26    0.28    0.24    0.15    0.00    0.00    0.00    0.00    0.00    0.00    0.00      0      0      0       0       0 13.06
 1991 181    17    15    6.0      1   0.12     47     12      0     32     59     59      0    0.0  0.000      0      0  0.000  0.278  0.000  0.000  0.000  0.000  0.000   3.52   0.00   0.00      0      0    260.0   0.07   0.00   0.27    0.34    0.30    0.21    0.01    0.00    0.00    0.00    0.00    0.00    0.00      0      0      0       0       0 13.25
 1991 182    18    16    6.0      1   0.15     61     12      0     35     73     73      0    0.0  0.000      0      0  0.000  0.000  0.000  0.000  0.000  0.000  0.000   3.27   0.00   0.00      0      0    246.5   0.08   0.00   0.28    0.37    0.34    0.23    0.01    0.00    0.00    0.00    0.00    0.00    0.00      0      0      0       0       1 13.83
 1991 183    19    17    7.0      1   0.18     78     12      0     39     90     90      0    0.0  0.000      0      0  0.000  0.000  0.000  0.000  0.000  0.000  0.000   3.25   0.00   0.00      0      0    234.2   0.10   0.00   0.29    0.41    0.37    0.26    0.01    0.00    0.00    0.00    0.00    0.00    0.00      0      0      0       0       1 14.37
 1991 184    20    18    7.0      1   0.22     98     12      0     46    110    110      0    0.0  0.000      0      0  0.000  0.000  0.000  0.000  0.000  0.000  0.000   3.24   0.00   0.00      0      0    223.4   0.12   0.00   0.30    0.48    0.44    0.31    0.02    0.00    0.00    0.00    0.00    0.00    0.00      0      0      0       0       1 14.63
 1991 185    21    19    7.0      1   0.26    119     12      0     54    131    131      0    0.0  0.000      0      0  0.000  0.000  0.000  0.000  0.000  0.000  0.000   3.32   0.00   0.00      0      0    214.8   0.14   0.00   0.31    0.54    0.50    0.38    0.03    0.00    0.00    0.00    0.00    0.00    0.00      0      0      0       0       1 12.99
 1991 186    22    20    8.0      1   0.30    144     12      0     58    156    156      0    0.0  0.000      0      0  0.000  0.000  0.000  0.000  0.000  0.000  0.000   3.27   0.00   0.00      0      0    206.5   0.17   0.00   0.33    0.58    0.54    0.41    0.04    0.00    0.00    0.00    0.00    0.00    0.00      0      0      0       0       1 13.98
 1991 187    23    21    8.0      2   0.35    164     12      0     71    176    176      0    0.0  0.000      0      0  0.000  0.000  0.000  0.000  0.000  0.000  0.000   3.43   0.00   0.00      0      0    214.8   0.19   0.00   0.35    0.68    0.63    0.50    0.08    0.00    0.00    0.00    0.00    0.00    0.00      0      0      0       0       2 14.11
 1991 188    24    22    8.0      2   0.41    200     12      0     82    212    212      0    0.0  0.000      0      0  0.000  0.000  0.006  0.000  0.000  0.000  0.000   3.22   0.00   0.00      0      0    206.0   0.23   0.00   0.36    0.77    0.72    0.58    0.11    0.00    0.00    0.00    0.00    0.00    0.00      0      0      0       0       2 14.92
 1991 189    25    23    9.0      2   0.47    237     12      0     88    249    249      0    0.0  0.000      0      0  0.000  0.000  0.000  0.000  0.000  0.000  0.000   3.27   0.00   0.00      0      0    199.0   0.26   0.00   0.37    0.82    0.77    0.62    0.13    0.00    0.00    0.00    0.00    0.00    0.00      0      0      0       0       3 13.41
 1991 190    26    24    9.0      2   0.54    282     12      0    100    294    294      0    0.0  0.000      0      0  0.000  0.000  0.000  0.000  0.000  0.000  0.000   4.06   0.00   0.00      0      0    192.0   0.30   0.00   0.38    0.90    0.85    0.71    0.16    0.00    0.00    0.00    0.00    0.00    0.00      0      0      0       0       3 14.40
 1991 191    27    25    9.0      2   0.61    327     12      0    120    339    339      0    0.0  0.000      0      0  0.000  0.000  0.000  0.000  0.000  0.000  0.000   3.96   0.00   0.00      0      0    186.1   0.34   0.00   0.39    1.04    1.00    0.86    0.23    0.00    0.00    0.00    0.00    0.00    0.00      0      0      0       0       3 13.10
 1991 192    28    26   10.0      3   0.68    376     12      0    131    388    388      0    0.0  0.000      0      0  0.000  0.000  0.000  0.000  0.000  0.000  0.000   3.84   0.00   0.00      0      0    180.2   0.38   0.00   0.40    1.11    1.08    0.94    0.27    0.00    0.00    0.00    0.00    0.00    0.00      0      0      0       0       4 13.04
 1991 193    29    27   10.0      3   0.76    430     13      0    158    443    443      0    0.0  0.000      0      0  0.000  0.000  0.000  0.000  0.000  0.000  0.000   3.74   0.00   0.00      0      0    175.9   0.42   0.00   0.40    1.29    1.27    1.13    0.36    0.00    0.00    0.00    0.00    0.00    0.00      0      0      0       0       5 13.13
 1991 194    30    28   11.0      3   0.85    493     14      0    181    506    506      0    0.0  0.000      0      0  0.000  0.000  0.000  0.000  0.000  0.000  0.000   3.70   0.00   0.00      0      0    171.6   0.47   0.00   0.41    1.43    1.43    1.31    0.45    0.01    0.00    0.00    0.00    0.00    0.00      0      0      0       0       6 13.78
 1991 195    31    29   11.0      3   0.92    548     15      0    213    563    563      0    0.0  0.000      0      0  0.000  0.000  0.000  0.000  0.000  0.000  0.000   3.62   0.00   0.00      0      0    168.3   0.51   0.00   0.42    1.62    1.65    1.53    0.57    0.02    0.00    0.00    0.00    0.00    0.00      0      0      0       0       6 11.25
 1991 196    32    30   11.0      3   1.01    609     18      0    244    628    628      0    0.0  0.000      0      0  0.000  0.000  0.000  0.000  0.000  0.000  0.000   3.58   0.00   0.00      0      0    165.0   0.56   0.00   0.43    1.83    1.86    1.76    0.69    0.02    0.00    0.00    0.00    0.00    0.00      0      0      0       0       7 11.65
 1991 197    33    31   11.0      3   1.09    675     23      0    277    697    697      0    0.0  0.000      0      0  0.000  0.000  0.000  0.000  0.000  0.000  0.000   3.54   0.00   0.00      0      0    161.9   0.61   0.00   0.44    2.06    2.07    1.98    0.81    0.03    0.00    0.00    0.00    0.00    0.00      0      0      0       0       9 11.50
 1991 198    34    32   12.0      3   1.19    751     30      0    314    781    781      0    0.0  0.000      0      0  0.000  0.000  0.000  0.000  0.000  0.000  0.000   3.52   0.00   0.00      0      0    158.7   0.66   0.00   0.44    2.32    2.31    2.24    0.95    0.05    0.00    0.00    0.00    0.00    0.00      0      0      0       0      10 11.00
 1991 199    35    33   12.0      3   1.30    834     39      0    327    873    873      0    0.0  0.000      0      0  0.000  0.000  0.000  0.000  0.000  0.000  0.000   3.48   0.00   0.00      0      0    155.6   0.72   0.00   0.45    2.37    2.40    2.34    1.01    0.05    0.00    0.00    0.00    0.00    0.00      0      0      0       0      12 11.65
 1991 200    36    34   12.0      3   1.40    917     51      0    371    968    968      0    0.0  0.000      0      0  0.000  0.000  0.000  0.000  0.000  0.000  0.000   3.43   0.00   0.00      0      0    152.8   0.78   0.00   0.46    2.56    2.69    2.67    1.20    0.07    0.00    0.00    0.00    0.00    0.00      0      0      0       0      13 11.40
 1991 201    37    35   13.0      3   1.51   1005     66      0    402   1071   1071      0    0.0  0.000      0      0  0.000  0.000  0.000  0.000  0.000  0.000  0.000   3.39   0.00   0.00      0      0    150.2   0.84   0.00   0.46    2.70    2.88    2.90    1.33    0.09    0.00    0.00    0.00    0.00    0.00      0      0      0       0      15 11.85
 1991 202    38    36   13.0      3   1.62   1097     86      0    417   1183   1183      0    0.0  0.000      0      0  0.000  0.000  0.000  0.000  0.000  0.000  0.000   3.35   0.00   0.00      0      0    147.7   0.90   0.00   0.47    2.78    2.97    3.00    1.39    0.09    0.00    0.00    0.00    0.00    0.00      0      0      0       0      17 12.30
 1991 203    39    37   13.0      3   1.73   1191    109      0    440   1300   1300      0    0.0  0.000      0      0  0.000  0.000  0.000  0.000  0.000  0.000  0.000   3.30   0.00   0.00      0      0    145.4   0.96   0.00   0.48    2.89    3.10    3.16    1.50    0.11    0.00    0.00    0.00    0.00    0.00      0      0      0       0      19 12.15
 1991 204    40    38   14.0      3   1.84   1288    138      0    472   1426   1426      0    0.0  0.000      0      0  0.000  0.000  0.000  0.000  0.000  0.000  0.000   3.26   0.00   0.00      0      0    143.2   1.02   0.00   0.49    3.05    3.28    3.38    1.65    0.14    0.00    0.00    0.00    0.00    0.00      0      0      0       0      21 12.45
 1991 205    41    39   14.0      3   1.97   1394    175      0    508   1569   1569      0    0.0  0.000      0      0  0.000  0.000  0.000  0.000  0.000  0.000  0.000   3.23   0.00   0.00      0      0    141.1   1.09   0.00   0.50    3.22    3.45    3.61    1.83    0.18    0.00    0.00    0.00    0.00    0.00      0      0      0       0      24 13.40
 1991 206    42    40   14.0      3   2.09   1507    222      0    542   1729   1729      0    0.0  0.000      0      0  0.000  0.000  0.000  0.000  0.000  0.000  0.000   3.19   0.00   0.00      0      0    138.9   1.16   0.00   0.51    3.20    3.62    3.83    2.03    0.23    0.00    0.00    0.00    0.00    0.00      0      0      0       0      26 14.10
 1991 207    43    41   15.0      3   2.23   1629    280      0    566   1909   1909      0    0.0  0.000      0      0  0.000  0.000  0.000  0.000  0.000  0.000  0.000   3.15   0.00   0.00      0      0    136.9   1.24   0.00   0.51    3.27    3.75    3.96    2.14    0.28    0.00    0.00    0.00    0.00    0.00      0      0      0       0      29 14.85
 1991 208    44    42   15.0      3   2.33   1720    329      0    572   2050   2050      0    0.0  0.000      0      0  0.000  0.000  0.000  0.000  0.000  0.000  0.000   3.08   0.00   0.00      0      0    135.4   1.29   0.00   0.52    3.26    3.73    3.95    2.19    0.32    0.01    0.00    0.00    0.00    0.00      0      0      0       0      32 11.05
 1991 209    45    43   15.0      3   2.44   1818    387      0    602   2205   2205      0    0.0  0.000      0      0  0.000  0.000  0.000  0.000  0.000  0.000  0.000   2.93   0.00   0.00      0      0    134.0   1.35   0.00   0.53    3.28    3.75    3.97    2.33    0.52    0.03    0.00    0.00    0.00    0.00      0      0      0       0      35 11.60
 1991 210    46    44   16.0      3   2.55   1921    456      0    628   2378   2378      0    0.0  0.000      0      0  0.000  0.000  0.000  0.000  0.000  0.000  0.000   2.78   0.00   0.00      0      0    132.6   1.41   0.00   0.54    3.32    3.78    4.00    2.34    0.77    0.08    0.00    0.00    0.00    0.00      0      0      0       0      38 12.25
 1991 211    47    45   16.0      3   2.66   2025    532      0    662   2558   2558      0    0.0  0.000      0      0  0.000  0.000  0.000  0.000  0.000  0.000  0.000   2.96   0.00   0.00      0      0    131.2   1.47   0.00   0.54    4.00    3.78    3.99    2.34    0.82    0.09    0.00    0.00    0.00    0.00      0      0      0       0      41 12.10
 1991 212    48    46   16.0      3   2.76   2127    615      0    690   2742   2742      0    0.0  0.000      0      0  0.000  0.000  0.000  0.000  0.000  0.000  0.000   2.94   0.00   0.00      0      0    130.0   1.53   0.00   0.55    4.00    3.77    3.98    2.33    0.86    0.10    0.00    0.00    0.00    0.00      0      0      0       0      44 11.80
 1991 213    49    47   16.0      3   2.87   2231    706      0    725   2936   2936      0    0.0  0.000      0      0  0.000  0.000  0.000  0.000  0.000  0.000  0.000   2.91   0.00   0.00      0      0    128.8   1.59   0.00   0.56    4.00    3.81    3.97    2.33    0.91    0.12    0.00    0.00    0.00    0.00      0      0      0       0      48 11.80
 1991 214    50    48   17.0      3   2.99   2348    816      0    760   3165   3169      0    0.0  0.000      4      0  0.000  0.000  0.000  0.000  0.000  0.000  0.000   2.89   0.00   0.00      0      4    127.5   1.60   0.00   0.57    4.00    3.98    3.96    2.32    0.95    0.13    0.00    0.00    0.00    0.00      0      0      0       0      51 13.35
 1991 215    51    49   17.0      3   3.23   2585    846      0    771   3431   3436      0    0.0  0.000      5      0  0.000  0.000  0.000  0.000  0.000  0.000  0.000   2.80   0.00   0.00      0      5    125.1   1.60   0.00   0.58    4.00    4.00    3.95    2.31    0.97    0.14    0.00    0.00    0.00    0.00      0      0      0       0      55 11.60
 1991 216    52    50   17.0      3   3.39   2738    980      0    783   3717   3728      0    0.0  0.000     10      0  0.000  0.000  0.000  0.000  0.000  0.000  0.000   2.65   0.00   0.00      0     10    123.7   1.60   0.00   0.58    4.00    4.00    3.94    2.31    1.01    0.17    0.00    0.00    0.00    0.00      0      0      0       0      59 12.70
 1991 217    53    51   18.0      3   3.50   2851   1112      0    793   3963   3979      0    0.0  0.000     16      0  0.000  0.000  0.000  0.000  0.000  0.000  0.000   2.53   0.00   0.00      0     16    122.7   1.60   0.00   0.59    4.00    4.00    3.95    2.31    1.09    0.21    0.00    0.00    0.00    0.00      0      0      0       0      63 11.35
 1991 218    54    52   18.0      3   3.58   2934   1233      0    801   4167   4189      0    0.0  0.000     22      0  0.000  0.000  0.000  0.000  0.000  0.000  0.000   2.44   0.00   0.01      0     22    122.0   1.60   0.00   0.60    4.00    4.00    3.95    2.31    1.15    0.25    0.00    0.00    0.00    0.00      0      0      0       0      67 12.05
 1991 219    55    53   18.0      3   3.66   3024   1375      0    810   4399   4432      0    0.0  0.000     33      0  0.000  0.000  0.017  0.000  0.000  0.000  0.000   2.33   0.00   0.01      0     33    121.1   1.60   0.00   0.61    4.00    4.00    3.95    2.31    1.22    0.30    0.00    0.00    0.00    0.00      0      0      0       0      71 11.45
 1991 220    56    54   19.0      3   3.73   3107   1518      0    827   4625   4672      0    0.0  0.000     47      0  0.000  0.000  0.030  0.000  0.000  0.000  0.000   2.24   0.00   0.01      0     47    120.0   1.60   0.00   0.61    4.00    4.00    3.97    2.32    1.32    0.38    0.00    0.00    0.00    0.00      0      0      0       0      75 11.85
 1991 221    57    55   19.0      3   3.77   3176   1643      0    854   4818   4882      0    0.0  0.000     64      0  0.000  0.000  0.046  0.000  0.000  0.000  0.000   2.17   0.00   0.01      0     64    118.8   1.60   0.00   0.62    4.00    4.00    4.00    2.35    1.47    0.52    0.00    0.00    0.00    0.00      0      0      0       0      79 11.15
 1991 222    58    56   19.0      3   3.81   3241   1770      0    861   5012   5094      0    0.0  0.000     82      0  0.000  0.000  0.059  0.000  0.000  0.000  0.000   2.11   0.00   0.02      0     82    117.5   1.60   0.00   0.63    4.00    4.00    4.00    2.35    1.51    0.56    0.00    0.00    0.00    0.00      0      0      0       0      83 12.25
 1991 223    59    57   20.0      3   3.83   3299   1888      0    868   5187   5289      0    0.0  0.000    102      0  0.000  0.000  0.068  0.000  0.000  0.000  0.000   2.05   0.00   0.02      0    102    116.1   1.60   0.00   0.64    4.00    4.00    4.00    2.35    1.56    0.61    0.00    0.00    0.00    0.00      0      0      0       0      88 12.25
 1991 224    60    58   20.0      3   3.85   3356   1997      0    901   5353   5488      0    0.0  0.000    135      0  0.000  0.000  0.076  0.000  0.000  0.000  0.000   2.00   0.00   0.02      0    135    114.7   1.60   0.00   0.64    4.00    4.00    4.00    2.38    1.71    0.78    0.00    0.00    0.00    0.00      0      0      0       0      92 12.25
 1991 225    61    59   20.0      3   3.86   3409   2098      0    933   5506   5681      0    0.0  0.000    175      0  0.000  0.000  0.082  0.000  0.000  0.000  0.000   1.96   0.00   0.03      0    175    113.2   1.60   0.00   0.65    4.00    4.00    4.00    2.42    1.85    0.94    0.00    0.00    0.00    0.00      0      0      0       0      96 12.30
 1991 226    62    60   20.0      3   3.86   3459   2183      0    984   5642   5872      0    0.0  0.000    229      0  0.000  0.000  0.087  0.000  0.000  0.000  0.000   1.93   0.00   0.04      0    229    111.7   1.60   0.00   0.65    4.00    4.00    4.00    2.48    2.07    1.19    0.00    0.00    0.00    0.00      0      0      0       0     101 12.50
 1991 227    63    61   21.0      3   3.86   3499   2267      0    988   5766   6029      0    0.0  0.000    263      0  0.000  0.000  0.091  0.000  0.000  0.000  0.000   1.90   0.00   0.04      0    263    110.2   1.60   0.00   0.65    4.00    4.00    4.00    2.48    2.09    1.22    0.00    0.00    0.00    0.00      0      0      0       0     106 12.05
 1991 228    64    62   21.0      3   3.85   3539   2329      0   1017   5869   6189      0    0.0  0.000    321      0  0.000  0.000  0.094  0.000  0.000  0.000  0.000   1.87   0.00   0.05      0    321    108.8   1.60   0.00   0.65    4.00    4.00    4.00    2.52    2.21    1.36    0.00    0.00    0.00    0.00      0      0      0       0     111 10.95
 1991 229    65    63   21.0      3   3.84   3579   2398      0   1020   5977   6348      0    0.0  0.000    371      0  0.000  0.000  0.097  0.000  0.000  0.000  0.000   1.85   0.00   0.06      0    371    107.3   1.60   0.00   0.65    4.00    4.00    4.00    2.52    2.22    1.39    0.00    0.00    0.00    0.00      0      0      0       0     116 11.35
 1991 230    66    64   21.0      3   3.83   3624   2470      0   1025   6093   6526      0    0.0  0.000    433      0  0.000  0.000  0.097  0.000  0.000  0.000  0.000   1.82   0.00   0.07      0    433    105.8   1.60   0.00   0.65    4.00    4.00    4.00    2.53    2.24    1.43    0.00    0.00    0.00    0.00      0      0      0       0     121 13.70
 1991 231    67    65   21.0      3   3.83   3672   2512      0   1050   6184   6718      0    0.0  0.000    534      0  0.000  0.000  0.098  0.000  0.000  0.000  0.000   1.80   0.00   0.08      0    534    104.4   1.60   0.00   0.65    4.00    4.00    4.00    2.57    2.31    1.55    0.00    0.00    0.00    0.00      0      0      0       0     126 13.25
 1991 232    68    66   21.0      3   3.83   3717   2530      0   1083   6247   6896      0    0.0  0.000    649      0  0.000  0.000  0.099  0.000  0.000  0.000  0.000   1.80   0.00   0.09      0    649    103.0   1.60   0.00   0.65    4.00    4.00    4.00    2.63    2.38    1.71    0.00    0.00    0.00    0.00      0      0      0       0     131 12.35
 1991 233    69    67   21.0      3   3.82   3762   2596      0   1127   6358   7073      0    0.0  0.000    716      0  0.000  0.000  0.099  0.000  0.000  0.000  0.000   1.77   0.00   0.10      0    716    101.6   1.60   0.00   0.65    4.00    4.00    4.00    2.73    2.45    1.90    0.00    0.00    0.00    0.00      0      0      0       0     137 12.30
 1991 234    70    68   21.0      3   3.81   3804   2659      0   1189   6463   7241      0    0.0  0.000    778      0  0.000  0.000  0.098  0.000  0.000  0.000  0.000   1.75   0.00   0.11      0    778    100.2   1.60   0.00   0.65    4.00    4.00    4.00    2.87    2.53    2.16    0.00    0.00    0.00    0.00      0      0      0       0     143 11.55
 1991 235    71    69   21.0      4   3.77   3766   2768      0   1192   6534   7411      0    0.0  0.000    877      0  0.000  0.000  0.099  0.000  0.000  0.000  0.000   1.74   0.00   0.12      0    877    100.0   1.60   0.00   0.65    4.00    4.00    4.00    2.88    2.53    2.18    0.00    0.00    0.00    0.00      0      0      0       0     148 11.45
 1991 236    72    70   21.0      4   3.72   3725   2858      0   1194   6584   7554      0    0.0  0.000    970      0  0.000  0.000  0.098  0.000  0.000  0.000  0.000   1.73   0.00   0.13      0    970     99.8   1.60   0.00   0.65    4.00    4.00    4.00    2.88    2.53    2.20    0.00    0.00    0.00    0.00      0      0      0       0     154 11.85
 1991 237    73    71   21.0      4   3.68   3683   2971      0   1198   6653   7754      0    0.0  0.000   1100      0  0.000  0.000  0.096  0.000  0.000  0.000  0.000   1.72   0.00   0.14      0   1100     99.8   1.60   0.00   0.65    4.00    4.00    4.00    2.89    2.52    2.22    0.00    0.00    0.00    0.00      0      0      0       0     160 11.70
 1991 238    74    72   21.0      4   3.63   3638   3090      0   1204   6729   7985      0    0.0  0.000   1257      0  0.000  0.000  0.093  0.000  0.000  0.000  0.000   1.71   0.00   0.16      0   1257     99.8   1.60   0.00   0.65    4.00    4.00    4.00    2.91    2.51    2.25    0.00    0.00    0.00    0.00      0      0      0       0     166 11.85
 1991 239    75    73   21.0      4   3.59   3591   3202      0   1210   6793   8211      0    0.0  0.000   1418      0  0.000  0.000  0.091  0.000  0.000  0.000  0.000   1.70   0.00   0.17      0   1418    100.0   1.60   0.00   0.65    4.00    4.00    4.00    2.93    2.50    2.28    0.00    0.00    0.00    0.00      0      0      0       0     172 11.95
 1991 240    76    74   21.0      4   3.55   3542   3278      0   1213   6820   8357      0    0.0  0.000   1537      0  0.000  0.000  0.088  0.000  0.000  0.000  0.000   1.70   0.00   0.18      0   1537    100.3   1.60   0.00   0.65    4.00    4.00    4.00    2.94    2.49    2.29    0.00    0.00    0.00    0.00      0      0      0       0     178 12.00
 1991 241    77    75   21.0      4   3.51   3491   3342      0   1214   6833   8480      0    0.0  0.000   1647      0  0.000  0.000  0.086  0.000  0.000  0.000  0.000   1.70   0.00   0.19      0   1647    100.6   1.60   0.00   0.65    4.00    4.00    4.00    2.95    2.48    2.30    0.00    0.00    0.00    0.00      0      0      0       0     185 11.50
 1991 242    78    76   21.0      4   3.48   3438   3432      0   1219   6869   8687      0    0.0  0.000   1818      0  0.000  0.000  0.080  0.000  0.000  0.000  0.000   1.70   0.00   0.21      0   1818    101.2   1.60   0.00   0.65    4.00    4.00    4.00    2.97    2.48    2.31    0.00    0.00    0.00    0.00      0      0      0       0     191 12.40
 1991 243    79    77   21.0      4   3.45   3381   3496      0   1222   6877   8834      0    0.0  0.000   1956      0  0.000  0.000  0.073  0.000  0.000  0.000  0.000   1.70   0.00   0.22      0   1956    101.9   1.60   0.00   0.65    4.00    4.00    4.00    2.98    2.47    2.32    0.00    0.00    0.00    0.00      0      0      0       0     197 14.60
 1991 244    80    78   21.0      4   3.42   3323   3563      0   1226   6886   9001      0    0.0  0.000   2115      0  0.000  0.000  0.067  0.000  0.000  0.000  0.000   1.71   0.00   0.23      0   2115    102.9   1.60   0.00   0.65    4.00    4.00    4.00    3.00    2.46    2.33    0.00    0.00    0.00    0.00      0      0      0       0     203 12.55
 1991 245    81    79   21.0      4   3.39   3262   3627      0   1230   6889   9169      0    0.0  0.000   2281      0  0.000  0.000  0.060  0.000  0.000  0.000  0.000   1.71   0.00   0.25      0   2281    104.0   1.60   0.00   0.65    4.00    4.00    4.00    3.01    2.46    2.33    0.00    0.00    0.00    0.00      0      0      0       0     209 12.35
 1991 246    82    80   21.0      4   3.37   3199   3690      0   1234   6889   9350      0    0.0  0.000   2461      0  0.000  0.000  0.054  0.000  0.000  0.000  0.000   1.72   0.00   0.26      0   2461    105.3   1.60   0.00   0.65    4.00    4.00    4.00    3.03    2.45    2.34    0.00    0.00    0.00    0.00      0      0      0       0     215 11.10
 1991 247    83    81   21.0      4   3.35   3134   3758      0   1240   6892   9573      0    0.0  0.000   2680      0  0.000  0.000  0.047  0.000  0.000  0.000  0.000   1.72   0.00   0.28      0   2680    106.9   1.60   0.00   0.65    4.00    4.00    4.00    3.06    2.44    2.35    0.00    0.00    0.00    0.00      0      0      0       0     221 11.80
 1991 248    84    82   21.0      4   3.33   3067   3813      0   1245   6880   9761      0    0.0  0.000   2881      0  0.000  0.000  0.038  0.000  0.000  0.000  0.000   1.73   0.00   0.30      0   2881    108.7   1.60   0.00   0.65    4.00    4.00    4.00    3.08    2.44    2.35    0.00    0.00    0.00    0.00      0      0      0       0     227 13.60
 1991 249    85    83   21.0      5   3.32   3067   3813    100   1293   6880   9860    936   10.7  0.010   2980      6  0.000  0.000  0.029  0.000  0.000  0.000  0.000   1.71   3.34   0.30      0   2980    108.3   1.60   0.00   0.65    4.00    4.00    4.00    3.24    2.46    2.41    0.00    0.00    0.00    0.00      0      0      0       0     234 14.80
 1991 250    86    84   21.0      5   3.31   3067   3813    199   1339   6880   9960    936   21.3  0.020   3080      6  0.000  0.000  0.031  0.000  0.000  0.000  0.000   1.69   6.47   0.31      0   3080    107.9   1.60   0.00   0.65    4.00    4.00    4.00    3.41    2.47    2.45    0.00    0.00    0.00    0.00      0      0      0       0     240 14.15
 1991 251    87    85   21.0      5   3.30   3067   3813    299   1387   6880  10060    936   32.0  0.030   3180      6  0.000  0.000  0.029  0.000  0.000  0.000  0.000   1.67   9.40   0.32      0   3180    107.5   1.60   0.00   0.65    4.00    4.00    4.00    3.58    2.49    2.48    0.00    0.00    0.00    0.00      0      0      0       0     247 12.55
 1991 252    88    86   21.0      5   3.29   3067   3813    399   1427   6880  10159    936   42.6  0.039   3279      6  0.000  0.000  0.028  0.000  0.000  0.000  0.000   1.66  12.16   0.32      0   3279    107.1   1.60   0.00   0.65    4.00    4.00    4.00    3.73    2.51    2.50    0.00    0.00    0.00    0.00      0      0      0       0     254 13.45
 1991 253    89    87   21.0      5   3.27   3067   3813    498   1467   6880  10259    936   53.3  0.049   3379      6  0.000  0.000  0.027  0.000  0.000  0.000  0.000   1.64  14.75   0.33      0   3379    106.8   1.60   0.00   0.65    4.00    4.00    4.00    3.88    2.53    2.52    0.00    0.00    0.00    0.00      0      0      0       0     261 13.85
 1991 254    90    88   21.0      5   3.26   3067   3813    598   1498   6880  10359    936   63.9  0.058   3478      6  0.000  0.000  0.025  0.000  0.000  0.000  0.000   1.62  17.19   0.34      0   3478    106.4   1.60   0.00   0.65    4.00    4.00    4.00    4.00    2.54    2.53    0.00    0.00    0.00    0.00      0      0      0       0     268 14.30
 1991 255    91    89   21.0      5   3.25   3067   3813    698   1534   6880  10458    936   74.6  0.067   3578      6  0.000  0.000  0.024  0.000  0.000  0.000  0.000   1.60  19.50   0.34      0   3578    106.1   1.60   0.00   0.65    4.00    4.00    4.00    4.00    2.55    2.55    0.00    0.00    0.00    0.00      0      0      0       0     276 13.10
 1991 256    92    90   21.0      5   3.24   3067   3813    797   1581   6880  10558    936   85.2  0.076   3678      6  0.000  0.000  0.023  0.000  0.000  0.000  0.000   1.58  21.68   0.35      0   3678    105.8   1.60   0.00   0.65    4.00    4.00    4.00    4.00    2.57    2.57    0.00    0.00    0.00    0.00      0      0      0       0     283 13.40
 1991 257    93    91   21.0      5   3.24   3067   3813    897   1627   6880  10657    936   95.9  0.084   3777      6  0.000  0.000  0.023  0.000  0.000  0.000  0.000   1.56  23.74   0.35      0   3777    105.5   1.60   0.00   0.65    4.00    4.00    4.00    4.00    2.59    2.59    0.00    0.00    0.00    0.00      0      0      0       0     291 13.20
 1991 258    94    92   21.0      5   3.23   3067   3813    997   1674   6880  10757    936  106.5  0.093   3877      6  0.000  0.000  0.022  0.000  0.000  0.000  0.000   1.54  25.70   0.36      0   3877    105.2   1.60   0.00   0.65    4.00    4.00    4.00    4.00    2.61    2.61    0.00    0.00    0.00    0.00      0      0      0       0     299 13.75
 1991 259    95    93   21.0      5   3.22   3067   3813   1096   1720   6880  10857    936  117.2  0.101   3977      6  0.000  0.000  0.021  0.000  0.000  0.000  0.000   1.52  27.56   0.37      0   3977    104.9   1.60   0.00   0.65    4.00    4.00    4.00    4.00    2.63    2.63    0.00    0.00    0.00    0.00      0      0      0       0     308 14.05
 1991 260    96    94   21.0      5   3.21   3067   3813   1196   1765   6880  10956    936  127.8  0.109   4076      6  0.000  0.000  0.020  0.000  0.000  0.000  0.000   1.50  29.34   0.37      0   4076    104.7   1.60   0.00   0.65    4.00    4.00    4.00    4.00    2.65    2.65    0.00    0.00    0.00    0.00      0      0      0       0     316 15.55
 1991 261    97    95   21.0      5   3.20   3067   3813   1295   1794   6880  11056    936  138.4  0.117   4176      6  0.000  0.000  0.020  0.000  0.000  0.000  0.000   1.48  31.02   0.38      0   4176    104.4   1.60   0.00   0.65    4.00    4.00    4.00    4.00    2.66    2.66    0.00    0.00    0.00    0.00      0      0      0       0     325 12.40
 1991 262    98    96   21.0      5   3.19   3067   3813   1395   1831   6880  11156    936  149.1  0.125   4276      6  0.000  0.000  0.020  0.000  0.000  0.000  0.000   1.45  32.63   0.38      0   4276    104.1   1.60   0.00   0.65    4.00    4.00    4.00    4.00    2.68    2.67    0.00    0.00    0.00    0.00      0      0      0       0     334 13.70
 1991 263    99    97   21.0      5   3.19   3067   3813   1495   1877   6880  11255    936  159.7  0.133   4375      6  0.000  0.000  0.020  0.000  0.000  0.000  0.000   1.43  34.16   0.39      0   4375    103.9   1.60   0.00   0.65    4.00    4.00    4.00    4.00    2.70    2.69    0.00    0.00    0.00    0.00      0      0      0       0     343 14.25
 1991 264   100    98   21.0      5   3.18   3067   3813   1594   1913   6880  11355    936  170.4  0.140   4475      6  0.000  0.000  0.020  0.000  0.000  0.000  0.000   1.41  35.63   0.39      0   4475    103.6   1.60   0.00   0.65    3.98    4.00    4.00    4.00    2.72    2.71    0.00    0.00    0.00    0.00      0      0      0       0     353 13.95
 1991 265   101    99   21.0      5   3.17   3067   3813   1694   1922   6880  11455    936  181.0  0.148   4575      6  0.000  0.000  0.022  0.000  0.000  0.000  0.000   1.39  37.03   0.40      0   4575    103.3   1.60   0.00   0.65    3.96    4.00    4.00    4.00    2.72    2.71    0.00    0.00    0.00    0.00      0      0      0       0     362 11.80
 1991 266   102   100   21.0      5   3.16   3067   3813   1794   1958   6880  11554    936  191.7  0.155   4674      6  0.000  0.000  0.022  0.000  0.000  0.000  0.000   1.37  38.37   0.40      0   4674    103.0   1.60   0.00   0.65    3.94    4.00    4.00    4.00    2.74    2.73    0.00    0.00    0.00    0.00      0      0      0       0     372 14.60
 1991 267   103   101   21.0      5   3.15   3067   3813   1893   1978   6880  11654    936  202.3  0.162   4774      6  0.000  0.000  0.023  0.000  0.000  0.000  0.000   1.34  39.66   0.41      0   4774    102.7   1.60   0.00   0.65    3.92    4.00    4.00    4.00    2.74    2.74    0.00    0.00    0.00    0.00      0      0      0       0     382 13.70
 1991 268   104   102   21.0      5   3.14   3067   3813   1993   2011   6880  11754    936  213.0  0.170   4874      6  0.000  0.127  0.026  0.000  0.000  0.000  0.000   1.32  40.89   0.41      0   4874    102.4   1.60   0.00   0.65    3.90    4.00    4.00    4.00    2.76    2.76    0.00    0.00    0.00    0.00      0      0      0       0     392 12.20
 1991 269   105   103   21.0      5   3.09   3067   3813   2076   2029   6880  11836    936  221.8  0.175   4956      6  0.310  0.541  0.028  0.000  0.000  0.000  0.000   1.30  41.88   0.42      0   4956    100.8   1.60   0.00   0.65    3.88    4.00    4.00    4.00    2.77    2.76    0.00    0.00    0.00    0.00      0      0      0       0     402 13.15
 1991 270   106   104   21.0      5   3.01   3067   3813   2148   2032   6880  11908    936  229.5  0.180   5028      6  0.502  0.668  0.030  0.000  0.000  0.000  0.000   1.28  42.71   0.42      0   5028     98.3   1.60   0.00   0.65    3.86    4.00    4.00    4.00    2.76    2.76    0.00    0.00    0.00    0.00      0      0      0       0     412 11.95
 1991 271   107   105   21.0      5   2.91   3067   3813   2209   2030   6880  11970    936  236.1  0.185   5090      6  0.701  0.801  0.030  0.000  0.000  0.000  0.000   1.27  43.40   0.43      0   5090     94.9   1.60   0.00   0.65    3.84    4.00    4.00    4.00    2.76    2.75    0.00    0.00    0.00    0.00      0      0      0       0     422 12.45
 1991 272   108   106   21.0      5   2.79   3067   3813   2266   2024   6880  12026    936  242.1  0.188   5146      6  0.785  0.857  0.029  0.000  0.000  0.000  0.000   1.25  44.03   0.43      0   5146     91.1   1.60   0.00   0.65    3.82    4.00    4.00    4.00    2.74    2.74    0.00    0.00    0.00    0.00      0      0      0       0     432 13.70
 1991 273   109   107   21.0      5   2.68   3067   3813   2321   2015   6880  12082    936  248.1  0.192   5202      6  0.802  0.868  0.027  0.000  0.000  0.000  0.000   1.24  44.62   0.43      0   5202     87.5   1.60   0.00   0.65    3.80    3.99    3.99    3.98    2.73    2.72    0.00    0.00    0.00    0.00      0      0      0       0     442 14.50
 1991 274   110   108   21.0      5   2.57   3067   3809   2376   2005   6876  12133    936  253.9  0.196   5257      6  0.819  0.880  0.025  0.000  0.000  0.000  0.000   1.22  45.20   0.43      0   5257     83.9   1.60   0.00   0.65    3.80    3.99    3.99    3.98    2.73    2.72    0.00    0.00    0.00    0.00      0      0      0       0     452 14.85
 1991 275   111   109   21.0      5   2.47   3067   3800   2430   1995   6867  12178    936  259.7  0.200   5311      6  0.836  0.891  0.024  0.000  0.000  0.000  0.000   1.21  45.76   0.44      0   5311     80.4   1.60   0.00   0.65    3.80    3.99    3.99    3.98    2.73    2.72    0.00    0.00    0.00    0.00      0      0      0       0     462 14.55
 1991 276   112   110   21.0      5   2.36   3067   3782   2481   1985   6849  12211    936  265.2  0.203   5362      6  0.878  0.919  0.021  0.000  0.000  0.000  0.000   1.20  46.28   0.44      0   5362     76.9   1.60   0.00   0.65    3.80    3.99    3.99    3.98    2.73    2.72    0.00    0.00    0.00    0.00      0      0      0       0     472 15.35
 1991 277   113   111   21.0      5   2.25   3067   3761   2533   1975   6828  12241    936  270.7  0.207   5413      6  0.880  0.921  0.018  0.000  0.000  0.000  0.000   1.19  46.79   0.44      0   5413     73.5   1.60   0.00   0.65    3.80    3.99    3.99    3.98    2.73    2.72    0.00    0.00    0.00    0.00      0      0      0       0     482 15.65
 1991 278   114   112   21.0      5   2.15   3067   3730   2581   1966   6796  12258    936  275.9  0.211   5462      6  0.932  0.955  0.015  0.000  0.000  0.000  0.000   1.18  47.26   0.45      0   5462     70.1   1.60   0.00   0.65    3.80    3.99    3.99    3.98    2.73    2.72    0.00    0.00    0.00    0.00      0      0      0       0     492 13.25
 1991 279   115   113   21.0      5   2.05   3067   3696   2630   1956   6763  12274    936  281.1  0.214   5511      6  0.927  0.952  0.011  0.000  0.000  0.000  0.000   1.17  47.73   0.45      0   5511     66.8   1.60   0.00   0.65    3.80    3.99    3.99    3.98    2.73    2.72    0.00    0.00    0.00    0.00      0      0      0       0     502 14.45
 1991 280   116   114   21.0      5   1.96   3067   3671   2681   1946   6738  12299    936  286.5  0.218   5561      6  0.901  0.934  0.008  0.000  0.000  0.000  0.000   1.16  48.20   0.45      0   5561     63.8   1.60   0.00   0.65    3.80    3.99    3.99    3.98    2.73    2.72    0.00    0.00    0.00    0.00      0      0      0       0     512 12.10
 1991 281   117   115   21.0      5   1.86   3067   3640   2729   1936   6706  12316    936  291.7  0.222   5610      6  0.936  0.958  0.003  0.000  0.000  0.000  0.000   1.15  48.65   0.46      0   5610     60.8   1.60   0.00   0.65    3.80    3.99    3.99    3.98    2.73    2.72    0.00    0.00    0.00    0.00      0      0      0       0     521 13.55
 1991 282   118   116   21.0      5   1.78   3067   3604   2777   1927   6671  12328    936  296.7  0.225   5657      6  0.949  0.966  0.000  0.000  0.000  0.000  0.000   1.15  49.08   0.46      0   5657     57.9   1.60   0.00   0.65    3.80    3.99    3.99    3.98    2.73    2.72    0.00    0.00    0.00    0.00      0      0      0       0     531 13.10
 1991 283   119   117   21.0      5   1.69   3067   3569   2824   1917   6635  12340    936  301.8  0.229   5705      6  0.951  0.968  0.000  0.000  0.000  0.000  0.000   1.14  49.51   0.46      0   5705     55.2   1.60   0.00   0.65    3.80    3.99    3.99    3.98    2.73    2.72    0.00    0.00    0.00    0.00      0      0      0       0     531 13.70
 1991 284   120   118   21.0      5   1.61   3067   3521   2872   1907   6588  12340    936  306.9  0.233   5752      6  1.000  1.000  0.000  0.000  0.000  0.000  0.000   1.13  49.92   0.47      0   5752     52.4   1.60   0.00   0.65    3.80    3.99    3.99    3.98    2.73    2.72    0.00    0.00    0.00    0.00      0      0      0       0     531 13.00
 1991 285   121   119   21.0      5   1.53   3067   3473   2919   1898   6540  12340    936  312.0  0.237   5800      6  1.000  1.000  0.000  0.000  0.000  0.000  0.000   1.13  50.33   0.47      0   5800     49.8   1.60   0.00   0.65    3.80    3.99    3.99    3.98    2.73    2.72    0.00    0.00    0.00    0.00      0      0      0       0     531 13.10
 1991 286   122   120   21.0      5   1.45   3067   3426   2967   1888   6493  12340    936  317.1  0.240   5847      6  1.000  1.000  0.000  0.000  0.000  0.000  0.000   1.12  50.74   0.47      0   5847     47.3   1.60   0.00   0.65    3.80    3.99    3.99    3.98    2.73    2.72    0.00    0.00    0.00    0.00      0      0      0       0     531 11.45
 1991 287   123   121   21.0      5   1.38   3067   3378   3014   1879   6445  12340    936  322.1  0.244   5895      6  1.000  1.000  0.000  0.000  0.000  0.000  0.000   1.12  51.13   0.48      0   5895     44.9   1.60   0.00   0.65    3.80    3.99    3.99    3.98    2.73    2.72    0.00    0.00    0.00    0.00      0      0      0       0     531 11.25
 1991 288   124   122   21.0      5   1.31   3067   3331   3062   1869   6398  12340    936  327.2  0.248   5942      6  1.000  1.000  0.000  0.000  0.000  0.000  0.000   1.11  51.53   0.48      0   5942     42.7   1.60   0.00   0.65    3.80    3.99    3.99    3.98    2.73    2.72    0.00    0.00    0.00    0.00      0      0      0       0     531 11.75
 1991 289   125   123   21.0      5   1.24   3067   3283   3109   1860   6350  12340    936  332.3  0.252   5990      6  1.000  1.000  0.000  0.000  0.000  0.000  0.000   1.10  51.91   0.49      0   5990     40.6   1.60   0.00   0.65    3.80    3.99    3.99    3.98    2.73    2.72    0.00    0.00    0.00    0.00      0      0      0       0     531 12.15
 1991 290   126   124   21.0      5   1.18   3067   3236   3157   1851   6303  12340    936  337.4  0.256   6037      6  1.000  1.000  0.000  0.000  0.000  0.000  0.000   1.10  52.29   0.49      0   6037     38.5   1.60   0.00   0.65    3.80    3.99    3.99    3.98    2.73    2.72    0.00    0.00    0.00    0.00      0      0      0       0     531 11.60
 1991 291   127   125   21.0      5   1.18   3067   3236   3157   1851   6303  12340    936  337.4  0.256   6037      6  1.000  1.000  0.000  0.000  0.000  0.000  0.000   1.10  52.29   0.49      0   6037     38.5   1.60   0.00   0.65    3.80    3.99    3.99    3.98    2.73    2.72    0.00    0.00    0.00    0.00      0      0      0       0     531 11.35
 1991 292   128   126   21.0      5   1.18   3067   3236   3157   1851   6303  12340    936  337.4  0.256   6037      6  0.000  1.000  0.000  0.000  0.000  0.000  0.000   1.10  52.29   0.49      0   6037     38.5   1.60   0.00   0.65    3.80    3.99    3.99    3.98    2.73    2.72    0.00    0.00    0.00    0.00      0      0      0       0     531  0.00

*DSSAT Cropping System Model Ver. 4.7.5.008 -release  JAN 15, 2021 21:49:57

*RUN   2        : ERiMA DCC1                MZCER047 ETMZpolo    1
 MODEL          : MZCER047 - Maize
 EXPERIMENT     : ETMZpolo SN MELKSSAL
 DATA PATH      : C:\Users\kpodo\Documents\GitHub\ET_DSS_hist_Eunjin\TEST\
 TREATMENT  1   : ERiMA DCC1                MZCER047
  
!                                                                                                                                                                                                                                      Root Dens. (cm/cm3) by soil depth (cm):
!                                                                                                                                                                                                                                      0-5    5-15   15-20   20-35   35-50   50-65   65-81   81-97  97-118 118-200
@YEAR DOY   DAS   DAP   L#SD   GSTD   LAID   LWAD   SWAD   GWAD   RWAD   VWAD   CWAD   G#AD   GWGD   HIAD   PWAD   P#AD   WSPD   WSGD   NSTD   EWSD  PST1A  PST2A   KSTD   LN%D   SH%D   HIPD   PWDD   PWTD     SLAD   CHTD   CWID   RDPD    RL1D    RL2D    RL3D    RL4D    RL5D    RL6D    RL7D    RL8D    RL9D   RL10D   CDAD   LDAD   SDAD   SNW0C   SNW1C  DTTD
 1992 166     2     0    0.0      0   0.00      0      0      0      0      0      0      0    0.0  0.000      0      0  0.000  0.000  0.000  0.000  0.000  0.000  0.000   0.00   0.00   0.00      0      0      0.0   0.00   0.00   0.03    0.00    0.00    0.00    0.00    0.00    0.00    0.00    0.00    0.00    0.00      0      0      0       0       0 15.75
 1992 167     3     1    0.0      0   0.00      0      0      0      0      0      0      0    0.0  0.000      0      0  0.000  0.000  0.000  0.000  0.000  0.000  0.000   0.00   0.00   0.00      0      0      0.0   0.00   0.00   0.05    0.00    0.00    0.00    0.00    0.00    0.00    0.00    0.00    0.00    0.00      0      0      0       0       0 15.87
 1992 168     4     2    0.0      0   0.00      0      0      0      0      0      0      0    0.0  0.000      0      0  0.000  0.000  0.000  0.000  0.000  0.000  0.000   0.00   0.00   0.00      0      0      0.0   0.00   0.00   0.07    0.00    0.00    0.00    0.00    0.00    0.00    0.00    0.00    0.00    0.00      0      0      0       0       0 16.89
 1992 169     5     3    0.0      0   0.00      0      0      0      0      0      0      0    0.0  0.000      0      0  0.000  0.000  0.000  0.000  0.000  0.000  0.000   0.00   0.00   0.00      0      0      0.0   0.00   0.00   0.10    0.00    0.00    0.00    0.00    0.00    0.00    0.00    0.00    0.00    0.00      0      0      0       0       0 16.88
 1992 170     6     4    0.0      0   0.00      0      0      0      0      0      0      0    0.0  0.000      0      0  0.000  0.000  0.000  0.000  0.000  0.000  0.000   0.00   0.00   0.00      0      0      0.0   0.00   0.00   0.12    0.00    0.00    0.00    0.00    0.00    0.00    0.00    0.00    0.00    0.00      0      0      0       0       0 14.41
 1992 171     7     5    2.0      1   0.00     12     12      0     12     24     24      0    0.0  0.000      0      0  0.000  0.000  0.012  0.000  0.000  0.000  0.000   4.40   0.00   0.00      0      0     30.7   0.00   0.00   0.14    0.24    0.09    0.00    0.00    0.00    0.00    0.00    0.00    0.00    0.00      0      0      0       0       0 16.41
 1992 172     8     6    2.0      1   0.01     12     12      0     12     24     24      0    0.0  0.000      0      0  0.000  0.000  0.012  0.000  0.000  0.000  0.000   4.40   0.00   0.00      0      0     64.6   0.00   0.00   0.16    0.24    0.09    0.00    0.00    0.00    0.00    0.00    0.00    0.00    0.00      0      0      0       0       0 17.74
 1992 173     9     7    3.0      1   0.01     12     12      0     13     24     24      0    0.0  0.000      0      0  0.000  0.000  0.006  0.000  0.000  0.000  0.000   4.40   0.00   0.00      0      0     99.0   0.01   0.00   0.17    0.25    0.10    0.00    0.00    0.00    0.00    0.00    0.00    0.00    0.00      0      0      0       0       0 15.96
 1992 174    10     8    3.0      1   0.02     12     12      0     14     24     24      0    0.0  0.000      0      0  0.000  0.000  0.000  0.000  0.000  0.000  0.000   4.40   0.00   0.00      0      0    131.3   0.01   0.00   0.19    0.26    0.11    0.01    0.00    0.00    0.00    0.00    0.00    0.00    0.00      0      0      0       0       0 13.81
 1992 175    11     9    4.0      1   0.03     12     12      0     15     24     24      0    0.0  0.000      0      0  0.000  0.000  0.000  0.000  0.000  0.000  0.000   4.40   0.00   0.00      0      0    253.6   0.02   0.00   0.20    0.27    0.12    0.02    0.00    0.00    0.00    0.00    0.00    0.00    0.00      0      0      0       0       0 15.38
 1992 176    12    10    4.0      1   0.05     15     12      0     17     27     27      0    0.0  0.000      0      0  0.000  0.000  0.000  0.000  0.000  0.000  0.000   3.94   0.00   0.00      0      0    329.1   0.03   0.00   0.21    0.28    0.14    0.03    0.00    0.00    0.00    0.00    0.00    0.00    0.00      0      0      0       0       0 16.38
 1992 177    13    11    5.0      1   0.07     23     12      0     18     35     35      0    0.0  0.000      0      0  0.000  0.000  0.000  0.000  0.000  0.000  0.000   3.25   0.00   0.00      0      0    300.8   0.04   0.00   0.22    0.28    0.15    0.04    0.00    0.00    0.00    0.00    0.00    0.00    0.00      0      0      0       0       0 15.83
 1992 178    14    12    5.0      1   0.09     33     12      0     19     45     45      0    0.0  0.000      0      0  0.000  0.000  0.000  0.000  0.000  0.000  0.000   3.25   0.00   0.00      0      0    279.1   0.05   0.00   0.24    0.29    0.17    0.06    0.00    0.00    0.00    0.00    0.00    0.00    0.00      0      0      0       0       0 15.89
 1992 179    15    13    5.0      1   0.12     47     12      0     22     59     59      0    0.0  0.000      0      0  0.000  0.000  0.000  0.000  0.000  0.000  0.000   3.21   0.00   0.00      0      0    260.6   0.07   0.00   0.25    0.31    0.19    0.07    0.00    0.00    0.00    0.00    0.00    0.00    0.00      0      0      0       0       0 17.04
 1992 180    16    14    6.0      1   0.14     58     12      0     27     70     70      0    0.0  0.000      0      0  0.000  0.000  0.000  0.000  0.000  0.000  0.000   3.47   0.00   0.00      0      0    249.6   0.08   0.00   0.26    0.36    0.23    0.12    0.01    0.00    0.00    0.00    0.00    0.00    0.00      0      0      0       0       0 12.24
 1992 181    17    15    6.0      1   0.17     72     12      0     33     84     84      0    0.0  0.000      0      0  0.000  0.000  0.000  0.000  0.000  0.000  0.000   3.36   0.00   0.00      0      0    238.2   0.10   0.00   0.27    0.41    0.28    0.17    0.02    0.00    0.00    0.00    0.00    0.00    0.00      0      0      0       0       1 14.21
 1992 182    18    16    6.0      1   0.20     87     12      0     39     99     99      0    0.0  0.000      0      0  0.000  0.000  0.000  0.000  0.000  0.000  0.000   3.45   0.00   0.00      0      0    229.6   0.11   0.00   0.28    0.46    0.34    0.22    0.03    0.00    0.00    0.00    0.00    0.00    0.00      0      0      0       0       1 12.03
 1992 183    19    17    7.0      1   0.24    108     12      0     46    120    120      0    0.0  0.000      0      0  0.000  0.000  0.000  0.000  0.000  0.000  0.000   3.28   0.00   0.00      0      0    219.3   0.13   0.00   0.29    0.52    0.39    0.28    0.04    0.00    0.00    0.00    0.00    0.00    0.00      0      0      0       0       1 15.57
 1992 184    20    18    7.0      1   0.28    135     12      0     53    147    147      0    0.0  0.000      0      0  0.000  0.000  0.000  0.000  0.000  0.000  0.000   3.22   0.00   0.00      0      0    209.4   0.16   0.00   0.30    0.58    0.45    0.33    0.06    0.00    0.00    0.00    0.00    0.00    0.00      0      0      0       0       1 16.78
 1992 185    21    19    8.0      1   0.33    163     12      0     57    175    175      0    0.0  0.000      0      0  0.000  0.000  0.000  0.000  0.000  0.000  0.000   3.28   0.00   0.00      0      0    201.5   0.18   0.00   0.33    0.61    0.48    0.36    0.07    0.00    0.00    0.00    0.00    0.00    0.00      0      0      0       0       1 14.91
 1992 186    22    20    8.0      2   0.39    184     12      0     74    196    196      0    0.0  0.000      0      0  0.000  0.000  0.000  0.000  0.000  0.000  0.000   3.44   0.00   0.00      0      0    209.9   0.21   0.00   0.35    0.73    0.59    0.48    0.13    0.00    0.00    0.00    0.00    0.00    0.00      0      0      0       0       2 15.01
 1992 187    23    21    8.0      2   0.44    217     12      0     84    229    229      0    0.0  0.000      0      0  0.000  0.000  0.005  0.000  0.000  0.000  0.000   3.33   0.00   0.00      0      0    202.8   0.24   0.00   0.37    0.80    0.66    0.55    0.17    0.00    0.00    0.00    0.00    0.00    0.00      0      0      0       0       2 13.20
 1992 188    24    22    9.0      2   0.51    261     12      0     96    273    273      0    0.0  0.000      0      0  0.000  0.000  0.000  0.000  0.000  0.000  0.000   3.21   0.00   0.00      0      0    195.2   0.28   0.00   0.38    0.90    0.75    0.63    0.21    0.00    0.00    0.00    0.00    0.00    0.00      0      0      0       0       2 15.32
 1992 189    25    23    9.0      2   0.59    314     12      0    109    326    326      0    0.0  0.000      0      0  0.000  0.000  0.000  0.000  0.000  0.000  0.000   4.08   0.00   0.00      0      0    187.8   0.33   0.00   0.39    1.00    0.84    0.72    0.25    0.00    0.00    0.00    0.00    0.00    0.00      0      0      0       0       3 16.44
 1992 190    26    24   10.0      2   0.67    372     12      0    125    384    384      0    0.0  0.000      0      0  0.000  0.000  0.000  0.000  0.000  0.000  0.000   3.99   0.00   0.00      0      0    181.3   0.37   0.00   0.40    1.13    0.95    0.83    0.31    0.00    0.00    0.00    0.00    0.00    0.00      0      0      0       0       3 15.81
 1992 191    27    25   10.0      3   0.76    431     12      0    146    443    443      0    0.0  0.000      0      0  0.000  0.000  0.000  0.000  0.000  0.000  0.000   3.85   0.00   0.00      0      0    175.3   0.42   0.00   0.41    1.21    1.11    0.99    0.39    0.01    0.00    0.00    0.00    0.00    0.00      0      0      0       0       4 14.76
 1992 192    28    26   10.0      3   0.84    490     13      0    167    503    503      0    0.0  0.000      0      0  0.000  0.000  0.000  0.000  0.000  0.000  0.000   3.73   0.00   0.00      0      0    171.3   0.47   0.00   0.42    1.20    1.30    1.16    0.48    0.01    0.00    0.00    0.00    0.00    0.00      0      0      0       0       5 13.32
 1992 193    29    27   11.0      3   0.94    564     14      0    192    578    578      0    0.0  0.000      0      0  0.000  0.000  0.000  0.000  0.000  0.000  0.000   3.70   0.00   0.00      0      0    167.0   0.52   0.00   0.43    1.20    1.51    1.37    0.59    0.02    0.00    0.00    0.00    0.00    0.00      0      0      0       0       6 15.08
 1992 194    30    28   11.0      3   1.03    630     17      0    222    647    647      0    0.0  0.000      0      0  0.000  0.000  0.000  0.000  0.000  0.000  0.000   3.62   0.00   0.00      0      0    163.6   0.57   0.00   0.43    1.45    1.71    1.55    0.69    0.03    0.00    0.00    0.00    0.00    0.00      0      0      0       0       7 12.60
 1992 195    31    29   11.0      3   1.13    708     21      0    259    729    729      0    0.0  0.000      0      0  0.000  0.000  0.000  0.000  0.000  0.000  0.000   3.59   0.00   0.00      0      0    160.2   0.63   0.00   0.44    1.76    1.98    1.78    0.81    0.04    0.00    0.00    0.00    0.00    0.00      0      0      0       0       8 13.45
 1992 196    32    30   12.0      3   1.24    793     28      0    297    821    821      0    0.0  0.000      0      0  0.000  0.000  0.000  0.000  0.000  0.000  0.000   3.55   0.00   0.00      0      0    156.8   0.69   0.00   0.45    2.06    2.25    2.00    0.92    0.05    0.00    0.00    0.00    0.00    0.00      0      0      0       0       9 12.15
 1992 197    33    31   12.0      3   1.35    880     37      0    323    917    917      0    0.0  0.000      0      0  0.000  0.000  0.000  0.000  0.000  0.000  0.000   3.50   0.00   0.00      0      0    153.8   0.75   0.00   0.46    2.25    2.45    2.19    1.01    0.06    0.00    0.00    0.00    0.00    0.00      0      0      0       0      11 12.05
 1992 198    34    32   12.0      3   1.46    963     48      0    352   1012   1012      0    0.0  0.000      0      0  0.000  0.000  0.000  0.000  0.000  0.000  0.000   3.44   0.00   0.00      0      0    151.2   0.81   0.00   0.47    2.40    2.65    2.42    1.12    0.07    0.00    0.00    0.00    0.00    0.00      0      0      0       0      12 11.40
 1992 199    35    33   13.0      3   1.57   1061     65      0    357   1125   1125      0    0.0  0.000      0      0  0.000  0.000  0.000  0.000  0.000  0.000  0.000   3.41   0.00   0.00      0      0    148.4   0.87   0.00   0.47    2.42    2.68    2.45    1.13    0.07    0.00    0.00    0.00    0.00    0.00      0      0      0       0      14 13.15
 1992 200    36    34   13.0      3   1.69   1161     85      0    392   1246   1246      0    0.0  0.000      0      0  0.000  0.000  0.000  0.000  0.000  0.000  0.000   3.37   0.00   0.00      0      0    145.9   0.94   0.00   0.48    2.62    2.90    2.69    1.28    0.09    0.00    0.00    0.00    0.00    0.00      0      0      0       0      16 13.10
 1992 201    37    35   13.0      3   1.81   1260    110      0    429   1370   1370      0    0.0  0.000      0      0  0.000  0.000  0.000  0.000  0.000  0.000  0.000   3.32   0.00   0.00      0      0    143.6   1.00   0.00   0.49    2.84    3.13    2.95    1.43    0.11    0.00    0.00    0.00    0.00    0.00      0      0      0       0      18 12.80
 1992 202    38    36   14.0      3   1.90   1337    133      0    433   1469   1469      0    0.0  0.000      0      0  0.000  0.000  0.000  0.000  0.000  0.000  0.000   3.25   0.00   0.00      0      0    142.0   1.05   0.00   0.50    2.84    3.15    2.97    1.45    0.12    0.00    0.00    0.00    0.00    0.00      0      0      0       0      20 11.95
 1992 203    39    37   14.0      3   2.00   1428    164      0    457   1592   1592      0    0.0  0.000      0      0  0.000  0.000  0.000  0.000  0.000  0.000  0.000   3.23   0.00   0.00      0      0    140.2   1.11   0.00   0.51    2.88    3.28    3.16    1.58    0.14    0.00    0.00    0.00    0.00    0.00      0      0      0       0      22 11.50
 1992 204    40    38   14.0      3   2.12   1531    204      0    500   1736   1736      0    0.0  0.000      0      0  0.000  0.000  0.000  0.000  0.000  0.000  0.000   3.20   0.00   0.00      0      0    138.4   1.18   0.00   0.51    2.96    3.49    3.45    1.82    0.19    0.00    0.00    0.00    0.00    0.00      0      0      0       0      24 12.75
 1992 205    41    39   15.0      3   2.23   1633    249      0    532   1882   1882      0    0.0  0.000      0      0  0.000  0.000  0.000  0.000  0.000  0.000  0.000   3.16   0.00   0.00      0      0    136.7   1.24   0.00   0.52    2.95    3.58    3.66    2.04    0.25    0.01    0.00    0.00    0.00    0.00      0      0      0       0      27 12.35
 1992 206    42    40   15.0      3   2.34   1732    301      0    537   2033   2033      0    0.0  0.000      0      0  0.000  0.000  0.000  0.000  0.000  0.000  0.000   3.11   0.00   0.00      0      0    135.1   1.30   0.00   0.53    2.94    3.57    3.67    2.10    0.27    0.01    0.00    0.00    0.00    0.00      0      0      0       0      29 14.70
 1992 207    43    41   15.0      3   2.47   1852    372      0    565   2223   2223      0    0.0  0.000      0      0  0.000  0.000  0.000  0.000  0.000  0.000  0.000   2.92   0.00   0.00      0      0    133.4   1.37   0.00   0.54    2.95    3.58    3.68    2.28    0.40    0.04    0.00    0.00    0.00    0.00      0      0      0       0      32 14.25
 1992 208    44    42   16.0      3   2.59   1967    448      0    585   2416   2416      0    0.0  0.000      0      0  0.000  0.000  0.000  0.000  0.000  0.000  0.000   2.74   0.00   0.00      0      0    131.8   1.44   0.00   0.55    2.98    3.60    3.69    2.32    0.56    0.08    0.00    0.00    0.00    0.00      0      0      0       0      35 13.55
 1992 209    45    43   16.0      3   2.70   2069    523      0    612   2592   2592      0    0.0  0.000      0      0  0.000  0.000  0.000  0.000  0.000  0.000  0.000   2.60   0.00   0.00      0      0    130.6   1.50   0.00   0.56    3.02    3.63    3.73    2.34    0.75    0.16    0.00    0.00    0.00    0.00      0      0      0       0      38 11.80
 1992 210    46    44   16.0      3   2.77   2138    580      0    616   2718   2718      0    0.0  0.000      0      0  0.000  0.000  0.015  0.000  0.000  0.000  0.000   2.51   0.00   0.00      0      0    129.5   1.54   0.00   0.56    3.02    3.63    3.73    2.34    0.79    0.18    0.00    0.00    0.00    0.00      0      0      0       0      41 12.55
 1992 211    47    45   17.0      3   2.86   2239    669      0    651   2908   2908      0    0.0  0.000      0      0  0.000  0.000  0.037  0.000  0.000  0.000  0.000   2.67   0.00   0.00      0      0    127.7   1.59   0.00   0.57    4.00    3.63    3.72    2.33    0.82    0.20    0.00    0.00    0.00    0.00      0      0      0       0      44 12.65
 1992 212    48    46   17.0      3   2.98   2355    784      0    661   3140   3140      0    0.0  0.000      0      0  0.000  0.000  0.000  0.000  0.000  0.000  0.000   2.76   0.00   0.00      0      0    126.5   1.60   0.00   0.58    4.00    3.61    3.71    2.32    0.82    0.21    0.00    0.00    0.00    0.00      0      0      0       0      47 13.85
 1992 213    49    47   17.0      3   3.07   2445    879      0    668   3324   3326      0    0.0  0.000      2      0  0.000  0.000  0.000  0.000  0.000  0.000  0.000   2.79   0.00   0.00      0      2    125.6   1.60   0.00   0.59    4.00    3.60    3.69    2.31    0.83    0.21    0.00    0.00    0.00    0.00      0      0      0       0      51 13.80
 1992 214    50    48   18.0      3   3.17   2538    956      0    674   3494   3498      0    0.0  0.000      4      0  0.000  0.000  0.000  0.000  0.000  0.000  0.000   2.77   0.00   0.00      0      4    124.7   1.60   0.00   0.60    4.00    3.58    3.68    2.30    0.83    0.22    0.00    0.00    0.00    0.00      0      0      0       0      54 12.30
 1992 215    51    49   18.0      3   3.27   2640   1076      0    684   3715   3724      0    0.0  0.000      8      0  0.000  0.000  0.000  0.000  0.000  0.000  0.000   2.66   0.00   0.00      0      8    123.8   1.60   0.00   0.60    4.00    3.57    3.66    2.30    0.84    0.23    0.00    0.00    0.00    0.00      0      0      0       0      57 12.25
 1992 216    52    50   18.0      3   3.37   2742   1221      0    694   3963   3979      0    0.0  0.000     16      0  0.000  0.000  0.000  0.000  0.000  0.000  0.000   2.55   0.00   0.00      0     16    122.9   1.60   0.00   0.61    4.00    3.57    3.66    2.29    0.86    0.25    0.00    0.00    0.00    0.00      0      0      0       0      61 12.50
 1992 217    53    51   19.0      3   3.43   2801   1318      0    700   4120   4140      0    0.0  0.000     20      0  0.000  0.000  0.000  0.000  0.000  0.000  0.000   2.48   0.00   0.00      0     20    122.4   1.60   0.00   0.62    4.00    3.57    3.66    2.29    0.88    0.29    0.00    0.00    0.00    0.00      0      0      0       0      64 10.85
 1992 218    54    52   19.0      3   3.48   2855   1417      0    705   4271   4296      0    0.0  0.000     25      0  0.000  0.000  0.008  0.000  0.000  0.000  0.000   2.41   0.00   0.01      0     25    121.9   1.60   0.00   0.63    4.00    3.57    3.66    2.29    0.90    0.33    0.00    0.00    0.00    0.00      0      0      0       0      68 13.35
 1992 219    55    53   19.0      3   3.55   2937   1577      0    716   4514   4556      0    0.0  0.000     42      0  0.000  0.000  0.017  0.000  0.000  0.000  0.000   2.30   0.00   0.01      0     42    120.9   1.60   0.00   0.64    4.00    3.60    3.69    2.31    0.93    0.40    0.00    0.00    0.00    0.00      0      0      0       0      71 14.35
 1992 220    56    54   20.0      3   3.58   2975   1657      0    719   4632   4680      0    0.0  0.000     48      0  0.000  0.000  0.025  0.000  0.000  0.000  0.000   2.25   0.00   0.01      0     48    120.3   1.60   0.00   0.64    4.00    3.60    3.69    2.31    0.94    0.43    0.00    0.00    0.00    0.00      0      0      0       0      75 12.30
 1992 221    57    55   20.0      3   3.60   3019   1755      0    724   4774   4834      0    0.0  0.000     60      0  0.000  0.000  0.043  0.000  0.000  0.000  0.000   2.20   0.00   0.01      0     60    119.3   1.60   0.00   0.65    4.00    3.61    3.70    2.31    0.94    0.47    0.00    0.00    0.00    0.00      0      0      0       0      78 11.70
 1992 222    58    56   20.0      3   3.64   3077   1880      0    732   4957   5043      0    0.0  0.000     85      0  0.000  0.000  0.047  0.000  0.000  0.000  0.000   2.13   0.00   0.02      0     85    118.2   1.60   0.00   0.65    4.00    3.64    3.73    2.33    0.95    0.52    0.00    0.00    0.00    0.00      0      0      0       0      82 13.70
 1992 223    59    57   21.0      3   3.65   3120   1977      0    738   5098   5205      0    0.0  0.000    107      0  0.000  0.000  0.052  0.000  0.000  0.000  0.000   2.08   0.00   0.02      0    107    117.1   1.60   0.00   0.65    4.00    3.66    3.75    2.34    0.95    0.56    0.00    0.00    0.00    0.00      0      0      0       0      86 12.20
 1992 224    60    58   21.0      3   3.67   3169   2074      0    754   5243   5392      0    0.0  0.000    149      0  0.000  0.000  0.061  0.000  0.000  0.000  0.000   2.03   0.00   0.03      0    149    115.9   1.60   0.00   0.65    4.00    3.73    3.82    2.37    0.95    0.64    0.00    0.00    0.00    0.00      0      0      0       0      89 11.45
 1992 225    61    59   21.0      3   3.69   3217   2169      0    765   5386   5584      0    0.0  0.000    198      0  0.000  0.000  0.066  0.000  0.000  0.000  0.000   1.99   0.00   0.04      0    198    114.7   1.60   0.00   0.65    4.00    3.77    3.86    2.40    0.95    0.70    0.00    0.00    0.00    0.00      0      0      0       0      93 12.00
 1992 226    62    60   21.0      3   3.70   3264   2253      0    772   5516   5768      0    0.0  0.000    252      0  0.000  0.000  0.072  0.000  0.000  0.000  0.000   1.95   0.00   0.04      0    252    113.4   1.60   0.00   0.65    4.00    3.80    3.89    2.41    0.95    0.74    0.00    0.00    0.00    0.00      0      0      0       0      97 11.65
 1992 227    63    61   21.0      3   3.71   3306   2320      0    780   5626   5936      0    0.0  0.000    310      0  0.000  0.000  0.077  0.000  0.000  0.000  0.000   1.92   0.00   0.05      0    310    112.1   1.60   0.00   0.65    4.00    3.84    3.93    2.44    0.95    0.78    0.00    0.00    0.00    0.00      0      0      0       0     101 10.85
 1992 228    64    62   21.0      3   3.71   3352   2384      0    790   5736   6118      0    0.0  0.000    382      0  0.000  0.000  0.081  0.000  0.000  0.000  0.000   1.89   0.00   0.06      0    382    110.7   1.60   0.00   0.65    4.00    3.89    3.98    2.46    0.95    0.82    0.00    0.00    0.00    0.00      0      0      0       0     105 11.85
 1992 229    65    63   21.0      3   3.71   3396   2437      0    797   5833   6293      0    0.0  0.000    460      0  0.000  0.000  0.083  0.000  0.000  0.000  0.000   1.87   0.00   0.07      0    460    109.4   1.60   0.00   0.65    4.00    3.92    4.00    2.48    0.95    0.85    0.00    0.00    0.00    0.00      0      0      0       0     109 11.50
 1992 230    66    64   21.0      3   3.72   3444   2463      0    827   5907   6479      0    0.0  0.000    572      0  0.000  0.000  0.085  0.000  0.000  0.000  0.000   1.85   0.00   0.09      0    572    108.0   1.60   0.00   0.65    4.00    4.00    4.00    2.57    0.97    0.94    0.00    0.00    0.00    0.00      0      0      0       0     113 12.30
 1992 231    67    65   21.0      3   3.72   3489   2492      0    840   5981   6657      0    0.0  0.000    676      0  0.000  0.000  0.086  0.000  0.000  0.000  0.000   1.84   0.00   0.10      0    676    106.7   1.60   0.00   0.65    4.00    4.00    4.00    2.61    0.97    0.98    0.00    0.00    0.00    0.00      0      0      0       0     117 11.75
 1992 232    68    66   21.0      3   3.72   3533   2519      0    846   6052   6830      0    0.0  0.000    779      0  0.000  0.000  0.085  0.000  0.000  0.000  0.000   1.82   0.00   0.11      0    779    105.4   1.60   0.00   0.65    4.00    4.00    4.00    2.62    0.97    1.00    0.00    0.00    0.00    0.00      0      0      0       0     121 11.50
 1992 233    69    67   21.0      4   3.68   3498   2644      0    852   6142   7040      0    0.0  0.000    898      0  0.000  0.000  0.085  0.000  0.000  0.000  0.000   1.80   0.00   0.13      0    898    105.3   1.60   0.00   0.65    4.00    4.00    4.00    2.64    0.97    1.01    0.00    0.00    0.00    0.00      0      0      0       0     125 11.15
 1992 234    70    68   21.0      4   3.65   3460   2767      0    859   6228   7259      0    0.0  0.000   1032      0  0.000  0.000  0.084  0.000  0.000  0.000  0.000   1.78   0.00   0.14      0   1032    105.3   1.60   0.00   0.65    4.00    4.00    4.00    2.67    0.97    1.01    0.00    0.00    0.00    0.00      0      0      0       0     129 11.20
 1992 235    71    69   21.0      4   3.61   3421   2854      0    863   6274   7412      0    0.0  0.000   1138      0  0.000  0.000  0.084  0.000  0.000  0.000  0.000   1.77   0.00   0.15      0   1138    105.4   1.60   0.00   0.65    4.00    4.00    4.00    2.69    0.97    1.01    0.00    0.00    0.00    0.00      0      0      0       0     134 12.15
 1992 236    72    70   21.0      4   3.57   3379   2944      0    868   6324   7586      0    0.0  0.000   1263      0  0.000  0.000  0.083  0.000  0.000  0.000  0.000   1.76   0.00   0.17      0   1263    105.6   1.60   0.00   0.65    4.00    4.00    4.00    2.71    0.97    1.01    0.00    0.00    0.00    0.00      0      0      0       0     138 12.00
 1992 237    73    71   21.0      4   3.53   3336   3044      0    875   6380   7798      0    0.0  0.000   1419      0  0.000  0.000  0.079  0.000  0.000  0.000  0.000   1.75   0.00   0.18      0   1419    106.0   1.60   0.00   0.65    4.00    4.00    4.00    2.73    0.97    1.01    0.00    0.00    0.00    0.00      0      0      0       0     142 12.95
 1992 238    74    72   21.0      4   3.50   3290   3130      0    881   6419   7987      0    0.0  0.000   1568      0  0.000  0.000  0.075  0.000  0.000  0.000  0.000   1.75   0.00   0.20      0   1568    106.4   1.60   0.00   0.65    4.00    4.00    4.00    2.75    0.98    1.01    0.00    0.00    0.00    0.00      0      0      0       0     147 12.10
 1992 239    75    73   21.0      4   3.47   3242   3204      0    886   6445   8155      0    0.0  0.000   1709      0  0.000  0.000  0.072  0.000  0.000  0.000  0.000   1.75   0.00   0.21      0   1709    107.1   1.60   0.00   0.65    4.00    4.00    4.00    2.77    0.98    1.01    0.00    0.00    0.00    0.00      0      0      0       0     151 12.25
 1992 240    76    74   21.0      4   3.44   3192   3276      0    891   6467   8329      0    0.0  0.000   1862      0  0.000  0.000  0.068  0.000  0.000  0.000  0.000   1.75   0.00   0.22      0   1862    107.8   1.60   0.00   0.65    4.00    4.00    4.00    2.79    0.98    1.01    0.00    0.00    0.00    0.00      0      0      0       0     156 11.85
 1992 241    77    75   21.0      4   3.41   3139   3348      0    897   6487   8517      0    0.0  0.000   2029      0  0.000  0.000  0.063  0.000  0.000  0.000  0.000   1.74   0.00   0.24      0   2029    108.7   1.60   0.00   0.65    4.00    4.00    4.00    2.82    0.98    1.01    0.00    0.00    0.00    0.00      0      0      0       0     160 11.90
 1992 242    78    76   21.0      4   3.39   3085   3415      0    903   6500   8701      0    0.0  0.000   2201      0  0.000  0.000  0.058  0.000  0.000  0.000  0.000   1.75   0.00   0.25      0   2201    109.8   1.60   0.00   0.65    4.00    4.00    4.00    2.84    0.98    1.01    0.00    0.00    0.00    0.00      0      0      0       0     165 11.60
 1992 243    79    77   21.0      4   3.37   3029   3475      0    908   6504   8872      0    0.0  0.000   2368      0  0.000  0.000  0.052  0.000  0.000  0.000  0.000   1.75   0.00   0.27      0   2368    111.2   1.60   0.00   0.65    4.00    4.00    4.00    2.86    0.98    1.01    0.00    0.00    0.00    0.00      0      0      0       0     169 11.20
 1992 244    80    78   21.0      4   3.35   2971   3541      0    916   6512   9085      0    0.0  0.000   2573      0  0.000  0.000  0.046  0.000  0.000  0.000  0.000   1.75   0.00   0.28      0   2573    112.7   1.60   0.00   0.65    4.00    4.00    4.00    2.89    0.98    1.02    0.00    0.00    0.00    0.00      0      0      0       0     174 11.15
 1992 245    81    79   21.0      4   3.33   2911   3602      0    923   6513   9298      0    0.0  0.000   2785      0  0.000  0.000  0.038  0.000  0.000  0.000  0.000   1.76   0.00   0.30      0   2785    114.4   1.60   0.00   0.65    4.00    4.00    4.00    2.91    0.98    1.02    0.00    0.00    0.00    0.00      0      0      0       0     178 11.95
 1992 246    82    80   21.0      4   3.32   2849   3640      0    926   6489   9421      0    0.0  0.000   2932      0  0.000  0.000  0.032  0.000  0.000  0.000  0.000   1.77   0.00   0.31      0   2932    116.5   1.60   0.00   0.65    4.00    4.00    4.00    2.93    0.98    1.02    0.00    0.00    0.00    0.00      0      0      0       0     183 11.10
 1992 247    83    81   21.0      4   3.31   2785   3686      0    932   6471   9605      0    0.0  0.000   3134      0  0.000  0.000  0.024  0.000  0.000  0.000  0.000   1.78   0.00   0.33      0   3134    118.8   1.60   0.00   0.65    4.00    4.00    4.00    2.95    0.98    1.02    0.00    0.00    0.00    0.00      0      0      0       0     187 11.50
 1992 248    84    82   21.0      5   3.30   2785   3686    100    977   6471   9705    942   10.7  0.010   3234      6  0.000  0.000  0.015  0.000  0.000  0.000  0.000   1.76   3.10   0.33      0   3234    118.6   1.60   0.00   0.65    4.00    4.00    4.00    3.11    1.01    1.04    0.00    0.00    0.00    0.00      0      0      0       0     192 11.15
 1992 249    85    83   21.0      5   3.29   2785   3686    201    999   6471   9805    942   21.3  0.020   3335      6  0.000  0.000  0.019  0.000  0.000  0.000  0.000   1.74   6.02   0.34      0   3335    118.3   1.60   0.00   0.65    4.00    4.00    4.00    3.19    1.02    1.05    0.00    0.00    0.00    0.00      0      0      0       0     197 10.75
 1992 250    86    84   21.0      5   3.29   2785   3686    301   1024   6471   9906    942   32.0  0.030   3435      6  0.000  0.000  0.019  0.000  0.000  0.000  0.000   1.72   8.76   0.35      0   3435    118.0   1.60   0.00   0.65    4.00    4.00    4.00    3.28    1.03    1.07    0.00    0.00    0.00    0.00      0      0      0       0     202 12.00
 1992 251    87    85   21.0      5   3.28   2785   3686    401   1060   6471  10006    942   42.6  0.040   3535      6  0.000  0.000  0.019  0.000  0.000  0.000  0.000   1.70  11.35   0.35      0   3535    117.7   1.60   0.00   0.65    4.00    4.00    4.00    3.41    1.05    1.09    0.00    0.00    0.00    0.00      0      0      0       0     207 10.90
 1992 252    88    86   21.0      5   3.27   2785   3686    502   1094   6471  10106    942   53.3  0.050   3636      6  0.000  0.000  0.019  0.000  0.000  0.000  0.000   1.67  13.79   0.36      0   3636    117.5   1.60   0.00   0.65    4.00    4.00    4.00    3.54    1.07    1.11    0.00    0.00    0.00    0.00      0      0      0       0     212 11.40
 1992 253    89    87   21.0      5   3.26   2785   3686    602   1115   6471  10207    942   63.9  0.059   3736      6  0.000  0.000  0.020  0.000  0.000  0.000  0.000   1.65  16.11   0.37      0   3736    117.2   1.60   0.00   0.65    4.00    4.00    4.00    3.61    1.08    1.12    0.00    0.00    0.00    0.00      0      0      0       0     218 11.70
 1992 254    90    88   21.0      5   3.25   2785   3686    702   1145   6471  10307    942   74.6  0.068   3836      6  0.000  0.000  0.020  0.000  0.000  0.000  0.000   1.63  18.30   0.37      0   3836    116.9   1.60   0.00   0.65    4.00    4.00    4.00    3.72    1.10    1.13    0.00    0.00    0.00    0.00      0      0      0       0     223 12.95
[...]
 2018 243    79    77   20.0      4   3.49   3190   3002      0   1039   6192   7657      0    0.0  0.000   1466      0  0.000  0.000  0.063  0.000  0.000  0.000  0.000   1.84   0.00   0.19      0   1466    109.3   1.60   0.00   0.65    4.00    4.00    4.00    2.44    2.51    1.97    0.00    0.00    0.00    0.00      0      0      0       0     158 10.90
 2018 244    80    78   20.0      4   3.46   3146   3080      0   1044   6226   7842      0    0.0  0.000   1616      0  0.000  0.000  0.059  0.000  0.000  0.000  0.000   1.83   0.00   0.21      0   1616    110.0   1.60   0.00   0.65    4.00    4.00    4.00    2.45    2.51    2.00    0.00    0.00    0.00    0.00      0      0      0       0     163 10.90
 2018 245    81    79   20.0      4   3.44   3101   3162      0   1050   6263   8059      0    0.0  0.000   1795      0  0.000  0.000  0.054  0.000  0.000  0.000  0.000   1.83   0.00   0.22      0   1795    110.8   1.60   0.00   0.65    4.00    4.00    4.00    2.47    2.50    2.04    0.00    0.00    0.00    0.00      0      0      0       0     169 10.95
 2018 246    82    80   20.0      4   3.42   3054   3240      0   1056   6294   8279      0    0.0  0.000   1984      0  0.000  0.000  0.049  0.000  0.000  0.000  0.000   1.83   0.00   0.24      0   1984    111.8   1.60   0.00   0.65    4.00    4.00    4.00    2.48    2.50    2.07    0.00    0.00    0.00    0.00      0      0      0       0     174 10.95
 2018 247    83    81   20.0      4   3.40   3005   3312      0   1062   6317   8493      0    0.0  0.000   2176      0  0.000  0.000  0.045  0.000  0.000  0.000  0.000   1.83   0.00   0.26      0   2176    113.0   1.60   0.00   0.65    4.00    4.00    4.00    2.50    2.49    2.10    0.00    0.00    0.00    0.00      0      0      0       0     179 10.90
 2018 248    84    82   20.0      4   3.38   2954   3368      0   1067   6323   8669      0    0.0  0.000   2346      0  0.000  0.000  0.040  0.000  0.000  0.000  0.000   1.83   0.00   0.27      0   2346    114.4   1.60   0.00   0.65    4.00    4.00    4.00    2.52    2.48    2.12    0.00    0.00    0.00    0.00      0      0      0       0     184 10.90
 2018 249    85    83   20.0      4   3.36   2902   3421      0   1072   6323   8847      0    0.0  0.000   2524      0  0.000  0.000  0.034  0.000  0.000  0.000  0.000   1.84   0.00   0.29      0   2524    116.0   1.60   0.00   0.65    4.00    4.00    4.00    2.53    2.47    2.14    0.00    0.00    0.00    0.00      0      0      0       0     190 10.95
 2018 250    86    84   20.0      4   3.35   2847   3468      0   1076   6315   9016      0    0.0  0.000   2701      0  0.000  0.000  0.027  0.000  0.000  0.000  0.000   1.85   0.00   0.30      0   2701    117.8   1.60   0.00   0.65    4.00    4.00    4.00    2.55    2.46    2.16    0.00    0.00    0.00    0.00      0      0      0       0     195 10.95
 2018 251    87    85   20.0      4   3.35   2791   3516      0   1082   6307   9215      0    0.0  0.000   2909      0  0.000  0.000  0.019  0.000  0.000  0.000  0.000   1.86   0.00   0.32      0   2909    119.9   1.60   0.00   0.65    4.00    4.00    4.00    2.57    2.46    2.18    0.00    0.00    0.00    0.00      0      0      0       0     201 10.95
 2018 252    88    86   20.0      4   3.34   2733   3558      0   1088   6291   9418      0    0.0  0.000   3127      0  0.000  0.000  0.011  0.000  0.000  0.000  0.000   1.87   0.00   0.33      0   3127    122.2   1.60   0.00   0.65    4.00    4.00    4.00    2.59    2.45    2.19    0.00    0.00    0.00    0.00      0      0      0       0     206 10.95
 2018 253    89    87   20.0      4   3.34   2673   3596      0   1094   6269   9621      0    0.0  0.000   3352      0  0.000  0.000  0.003  0.000  0.000  0.000  0.000   1.88   0.00   0.35      0   3352    124.9   1.60   0.00   0.65    4.00    4.00    4.00    2.61    2.44    2.21    0.00    0.00    0.00    0.00      0      0      0       0     211 10.95
 2018 254    90    88   20.0      4   3.34   2611   3628      0   1099   6240   9805      0    0.0  0.000   3565      0  0.000  0.000  0.000  0.000  0.000  0.000  0.000   1.89   0.00   0.36      0   3565    127.9   1.60   0.00   0.65    4.00    4.00    4.00    2.63    2.44    2.22    0.00    0.00    0.00    0.00      0      0      0       0     217 10.95
 2018 255    91    89   20.0      5   3.34   2611   3628    100   1133   6240   9905    940   10.7  0.010   3666      6  0.000  0.000  0.000  0.000  0.000  0.000  0.000   1.87   2.73   0.37      0   3666    127.9   1.60   0.00   0.65    4.00    4.00    4.00    2.75    2.44    2.28    0.00    0.00    0.00    0.00      0      0      0       0     222 10.95
 2018 256    92    90   20.0      5   3.34   2611   3628    200   1168   6240  10005    940   21.3  0.020   3766      6  0.000  0.000  0.000  0.000  0.000  0.000  0.000   1.84   5.32   0.38      0   3766    127.9   1.60   0.00   0.65    4.00    4.00    4.00    2.87    2.46    2.33    0.00    0.00    0.00    0.00      0      0      0       0     228 10.95
 2018 257    93    91   20.0      5   3.34   2611   3628    300   1212   6240  10105    940   32.0  0.030   3866      6  0.000  0.000  0.000  0.000  0.000  0.000  0.000   1.82   7.77   0.38      0   3866    127.9   1.60   0.00   0.65    3.98    4.00    4.00    3.05    2.48    2.40    0.00    0.00    0.00    0.00      0      0      0       0     234 10.95
 2018 258    94    92   20.0      5   3.34   2611   3628    400   1253   6240  10205    940   42.6  0.039   3966      6  0.000  0.000  0.000  0.000  0.000  0.000  0.000   1.79  10.10   0.39      0   3966    127.9   1.60   0.00   0.65    4.00    4.00    4.00    3.20    2.49    2.43    0.00    0.00    0.00    0.00      0      0      0       0     240 10.95
 2018 259    95    93   20.0      5   3.34   2611   3628    501   1295   6240  10306    940   53.3  0.049   4066      6  0.000  0.000  0.000  0.000  0.000  0.000  0.000   1.77  12.31   0.39      0   4066    127.9   1.60   0.00   0.65    4.00    4.00    4.00    3.35    2.51    2.45    0.00    0.00    0.00    0.00      0      0      0       0     246 10.95
 2018 260    96    94   20.0      5   3.34   2611   3628    601   1332   6240  10406    940   63.9  0.058   4166      6  0.000  0.000  0.000  0.000  0.000  0.000  0.000   1.74  14.42   0.40      0   4166    127.9   1.60   0.00   0.65    4.00    4.00    4.00    3.49    2.52    2.47    0.00    0.00    0.00    0.00      0      0      0       0     253 10.95
 2018 261    97    95   20.0      5   3.34   2611   3628    701   1363   6240  10506    940   74.6  0.067   4266      6  0.000  0.000  0.000  0.000  0.000  0.000  0.000   1.72  16.43   0.41      0   4266    127.9   1.60   0.00   0.65    4.00    4.00    4.00    3.61    2.53    2.48    0.00    0.00    0.00    0.00      0      0      0       0     259 10.95
 2018 262    98    96   20.0      5   3.34   2611   3628    801   1404   6240  10606    940   85.2  0.076   4366      6  0.000  0.000  0.000  0.000  0.000  0.000  0.000   1.69  18.34   0.41      0   4366    127.9   1.60   0.00   0.65    4.00    4.00    4.00    3.76    2.55    2.49    0.00    0.00    0.00    0.00      0      0      0       0     266 10.95
 2018 263    99    97   20.0      5   3.34   2611   3628    901   1441   6240  10706    940   95.8  0.084   4466      6  0.000  0.000  0.000  0.000  0.000  0.000  0.000   1.67  20.17   0.42      0   4466    127.9   1.60   0.00   0.65    4.00    4.00    4.00    3.90    2.57    2.51    0.00    0.00    0.00    0.00      0      0      0       0     273 10.95
 2018 264   100    98   20.0      5   3.34   2611   3628   1001   1486   6240  10806    940  106.5  0.093   4566      6  0.000  0.000  0.000  0.000  0.000  0.000  0.000   1.65  21.92   0.42      0   4566    127.9   1.60   0.00   0.65    4.00    4.00    4.00    4.00    2.58    2.53    0.00    0.00    0.00    0.00      0      0      0       0     280 11.00
 2018 265   101    99   20.0      5   3.34   2611   3628   1101   1516   6240  10906    940  117.2  0.101   4667      6  0.000  0.000  0.000  0.000  0.000  0.000  0.000   1.62  23.60   0.43      0   4667    127.9   1.60   0.00   0.65    4.00    4.00    4.00    4.00    2.59    2.54    0.00    0.00    0.00    0.00      0      0      0       0     288 10.95
 2018 266   102   100   20.0      5   3.34   2611   3628   1201   1560   6240  11006    940  127.8  0.109   4767      6  0.000  0.000  0.002  0.000  0.000  0.000  0.000   1.60  25.20   0.43      0   4767    127.9   1.60   0.00   0.65    4.00    4.00    4.00    4.00    2.61    2.56    0.00    0.00    0.00    0.00      0      0      0       0     295 10.95
 2018 267   103   101   20.0      5   3.34   2611   3628   1301   1592   6240  11106    940  138.5  0.117   4867      6  0.000  0.000  0.004  0.000  0.000  0.000  0.000   1.57  26.74   0.44      0   4867    127.8   1.60   0.00   0.65    4.00    4.00    4.00    4.00    2.62    2.57    0.00    0.00    0.00    0.00      0      0      0       0     303 11.00
 2018 268   104   102   20.0      5   3.33   2611   3628   1401   1637   6240  11206    940  149.1  0.125   4967      6  0.000  0.000  0.006  0.000  0.000  0.000  0.000   1.55  28.22   0.44      0   4967    127.7   1.60   0.00   0.65    4.00    4.00    4.00    4.00    2.64    2.59    0.00    0.00    0.00    0.00      0      0      0       0     311 11.00
 2018 269   105   103   20.0      5   3.33   2611   3628   1502   1671   6240  11307    940  159.8  0.133   5067      6  0.000  0.000  0.009  0.000  0.000  0.000  0.000   1.52  29.63   0.45      0   5067    127.6   1.60   0.00   0.65    4.00    4.00    4.00    4.00    2.65    2.60    0.00    0.00    0.00    0.00      0      0      0       0     319 10.95
 2018 270   106   104   20.0      5   3.33   2611   3628   1602   1713   6240  11407    940  170.4  0.140   5167      6  0.000  0.000  0.011  0.000  0.000  0.000  0.000   1.50  31.00   0.45      0   5167    127.4   1.60   0.00   0.65    3.98    4.00    4.00    4.00    2.68    2.62    0.00    0.00    0.00    0.00      0      0      0       0     328 10.95
 2018 271   107   105   20.0      5   3.32   2611   3628   1702   1759   6240  11507    940  181.1  0.148   5267      6  0.000  0.000  0.014  0.000  0.000  0.000  0.000   1.47  32.31   0.46      0   5267    127.2   1.60   0.00   0.65    3.96    4.00    4.00    4.00    2.70    2.65    0.00    0.00    0.00    0.00      0      0      0       0     336 10.95
 2018 272   108   106   20.0      5   3.31   2611   3628   1802   1796   6240  11607    940  191.7  0.155   5367      6  0.000  0.174  0.017  0.000  0.000  0.000  0.000   1.45  33.57   0.46      0   5367    126.9   1.60   0.00   0.65    3.94    4.00    4.00    4.00    2.72    2.67    0.00    0.00    0.00    0.00      0      0      0       0     345 11.00
 2018 273   109   107   20.0      5   3.25   2611   3628   1882   1815   6240  11687    940  200.2  0.161   5447      6  0.370  0.581  0.021  0.000  0.000  0.000  0.000   1.42  34.54   0.47      0   5447    124.5   1.60   0.00   0.65    3.92    4.00    4.00    4.00    2.73    2.67    0.00    0.00    0.00    0.00      0      0      0       0     354 10.95
 2018 274   110   108   20.0      5   3.16   2611   3628   1950   1821   6240  11755    940  207.5  0.166   5516      6  0.567  0.712  0.023  0.000  0.000  0.000  0.000   1.41  35.36   0.47      0   5516    121.0   1.60   0.00   0.65    3.99    4.00    4.00    4.00    2.73    2.67    0.00    0.00    0.00    0.00      0      0      0       0     363 10.95
 2018 275   111   109   20.0      5   3.15   2611   3628   2051   1860   6240  11856    940  218.2  0.173   5616      6  0.000  0.000  0.024  0.000  0.000  0.000  0.000   1.38  36.51   0.47      0   5616    120.6   1.60   0.00   0.65    3.97    4.00    4.00    4.00    2.75    2.69    0.00    0.00    0.00    0.00      0      0      0       0     372 10.70
 2018 276   112   110   20.0      5   3.04   2611   3628   2112   1857   6240  11917    940  224.7  0.177   5677      6  0.701  0.801  0.028  0.000  0.000  0.000  0.000   1.36  37.20   0.48      0   5677    116.4   1.60   0.00   0.65    3.95    4.00    4.00    4.00    2.74    2.68    0.00    0.00    0.00    0.00      0      0      0       0     381 10.70
 2018 277   113   111   20.0      5   2.93   2611   3628   2171   1850   6240  11976    940  231.0  0.181   5736      6  0.747  0.832  0.029  0.000  0.000  0.000  0.000   1.35  37.85   0.48      0   5736    112.1   1.60   0.00   0.65    3.93    4.00    4.00    3.99    2.73    2.67    0.00    0.00    0.00    0.00      0      0      0       0     391 10.70
 2018 278   114   112   20.0      5   2.81   2611   3628   2228   1842   6240  12033    940  237.0  0.185   5793      6  0.785  0.857  0.030  0.000  0.000  0.000  0.000   1.33  38.46   0.48      0   5793    107.7   1.60   0.00   0.65    3.91    3.99    3.99    3.97    2.71    2.66    0.00    0.00    0.00    0.00      0      0      0       0     400 10.65
 2018 279   115   113   20.0      5   2.69   2611   3625   2282   1832   6237  12084    940  242.8  0.189   5848      6  0.831  0.888  0.030  0.000  0.000  0.000  0.000   1.31  39.03   0.48      0   5848    103.2   1.60   0.00   0.65    3.91    3.99    3.99    3.97    2.71    2.66    0.00    0.00    0.00    0.00      0      0      0       0     409 10.70
 2018 280   116   114   20.0      5   2.58   2611   3618   2336   1823   6229  12130    940  248.5  0.193   5901      6  0.850  0.900  0.031  0.000  0.000  0.000  0.000   1.30  39.58   0.49      0   5901     98.8   1.60   0.00   0.65    3.91    3.99    3.99    3.97    2.71    2.66    0.00    0.00    0.00    0.00      0      0      0       0     418 10.65
 2018 281   117   115   20.0      5   2.47   2611   3600   2388   1814   6211  12165    940  254.1  0.196   5954      6  0.862  0.908  0.032  0.000  0.000  0.000  0.000   1.29  40.11   0.49      0   5954     94.6   1.60   0.00   0.65    3.91    3.99    3.99    3.97    2.71    2.66    0.00    0.00    0.00    0.00      0      0      0       0     427 10.65
 2018 282   118   116   20.0      5   2.36   2611   3572   2438   1805   6184  12187    940  259.4  0.200   6003      6  0.920  0.947  0.032  0.000  0.000  0.000  0.000   1.28  40.61   0.49      0   6003     90.2   1.60   0.00   0.65    3.91    3.99    3.99    3.97    2.71    2.66    0.00    0.00    0.00    0.00      0      0      0       0     437 10.65
 2018 283   119   117   20.0      5   2.24   2611   3541   2486   1796   6153  12204    940  264.5  0.204   6051      6  0.942  0.962  0.031  0.000  0.000  0.000  0.000   1.27  41.08   0.50      0   6051     86.0   1.60   0.00   0.65    3.91    3.99    3.99    3.97    2.71    2.66    0.00    0.00    0.00    0.00      0      0      0       0     446 10.60
 2018 284   120   118   20.0      5   2.14   2611   3509   2534   1787   6121  12220    940  269.6  0.207   6099      6  0.947  0.965  0.028  0.000  0.000  0.000  0.000   1.26  41.55   0.50      0   6099     81.9   1.60   0.00   0.65    3.91    3.99    3.99    3.97    2.71    2.66    0.00    0.00    0.00    0.00      0      0      0       0     455 10.60
 2018 285   121   119   20.0      5   2.04   2611   3476   2582   1778   6087  12235    940  274.7  0.211   6148      6  0.940  0.960  0.026  0.000  0.000  0.000  0.000   1.25  42.01   0.50      0   6148     78.0   1.60   0.00   0.65    3.91    3.99    3.99    3.97    2.71    2.66    0.00    0.00    0.00    0.00      0      0      0       0     463 10.60
 2018 286   122   120   20.0      5   1.94   2611   3442   2630   1769   6053  12249    940  279.8  0.215   6196      6  0.947  0.965  0.024  0.000  0.000  0.000  0.000   1.25  42.45   0.51      0   6196     74.4   1.60   0.00   0.65    3.91    3.99    3.99    3.97    2.71    2.66    0.00    0.00    0.00    0.00      0      0      0       0     472 10.55
 2018 287   123   121   20.0      5   1.85   2611   3406   2679   1760   6018  12261    940  285.0  0.218   6244      6  0.944  0.963  0.021  0.000  0.000  0.000  0.000   1.24  42.90   0.51      0   6244     70.8   1.60   0.00   0.65    3.91    3.99    3.99    3.97    2.71    2.66    0.00    0.00    0.00    0.00      0      0      0       0     481 10.55
 2018 288   124   122   20.0      5   1.76   2611   3370   2727   1752   5981  12274    940  290.1  0.222   6293      6  0.934  0.956  0.019  0.000  0.000  0.000  0.000   1.23  43.34   0.51      0   6293     67.5   1.60   0.00   0.65    3.91    3.99    3.99    3.97    2.71    2.66    0.00    0.00    0.00    0.00      0      0      0       0     490 10.55
 2018 289   125   123   20.0      5   1.68   2611   3332   2774   1743   5943  12282    940  295.1  0.226   6340      6  0.965  0.977  0.016  0.000  0.000  0.000  0.000   1.22  43.76   0.52      0   6340     64.3   1.60   0.00   0.65    3.91    3.99    3.99    3.97    2.71    2.66    0.00    0.00    0.00    0.00      0      0      0       0     490 10.50
 2018 290   126   124   20.0      5   1.59   2611   3285   2821   1734   5896  12282    940  300.1  0.230   6387      6  1.000  1.000  0.013  0.000  0.000  0.000  0.000   1.22  44.17   0.52      0   6387     61.1   1.60   0.00   0.65    3.91    3.99    3.99    3.97    2.71    2.66    0.00    0.00    0.00    0.00      0      0      0       0     490 10.50
 2018 291   127   125   20.0      5   1.51   2611   3238   2868   1725   5849  12282    940  305.1  0.234   6434      6  1.000  1.000  0.010  0.000  0.000  0.000  0.000   1.21  44.58   0.52      0   6434     58.0   1.60   0.00   0.65    3.91    3.99    3.99    3.97    2.71    2.66    0.00    0.00    0.00    0.00      0      0      0       0     490 10.45
 2018 292   128   126   20.0      5   1.44   2611   3191   2915   1717   5802  12282    940  310.1  0.237   6481      6  1.000  1.000  0.006  0.000  0.000  0.000  0.000   1.21  44.98   0.53      0   6481     55.1   1.60   0.00   0.65    3.91    3.99    3.99    3.97    2.71    2.66    0.00    0.00    0.00    0.00      0      0      0       0     490 10.45
 2018 293   129   127   20.0      5   1.37   2611   3144   2962   1708   5755  12282    940  315.1  0.241   6528      6  1.000  1.000  0.002  0.000  0.000  0.000  0.000   1.20  45.38   0.53      0   6528     52.4   1.60   0.00   0.65    3.91    3.99    3.99    3.97    2.71    2.66    0.00    0.00    0.00    0.00      0      0      0       0     490 10.35
 2018 294   130   128   20.0      5   1.30   2611   3097   3009   1700   5708  12282    940  320.1  0.245   6575      6  1.000  1.000  0.000  0.000  0.000  0.000  0.000   1.20  45.77   0.54      0   6575     49.7   1.60   0.00   0.65    3.91    3.99    3.99    3.97    2.71    2.66    0.00    0.00    0.00    0.00      0      0      0       0     490 10.35
 2018 295   131   129   20.0      5   1.23   2611   3050   3056   1691   5661  12282    940  325.1  0.249   6622      6  1.000  1.000  0.000  0.000  0.000  0.000  0.000   1.19  46.16   0.54      0   6622     47.3   1.60   0.00   0.65    3.91    3.99    3.99    3.97    2.71    2.66    0.00    0.00    0.00    0.00      0      0      0       0     490 10.30
 2018 296   132   130   20.0      5   1.17   2611   3003   3103   1683   5614  12282    940  330.1  0.253   6669      6  1.000  1.000  0.000  0.000  0.000  0.000  0.000   1.18  46.53   0.54      0   6669     44.9   1.60   0.00   0.65    3.91    3.99    3.99    3.97    2.71    2.66    0.00    0.00    0.00    0.00      0      0      0       0     490 10.30
 2018 297   133   131   20.0      5   1.17   2611   3003   3103   1683   5614  12282    940  330.1  0.253   6669      6  1.000  1.000  0.000  0.000  0.000  0.000  0.000   1.18  46.53   0.54      0   6669     44.9   1.60   0.00   0.65    3.91    3.99    3.99    3.97    2.71    2.66    0.00    0.00    0.00    0.00      0      0      0       0     490 10.25
 2018 298   134   132   20.0      5   1.17   2611   3003   3103   1683   5614  12282    940  330.1  0.253   6669      6  0.000  1.000  0.000  0.000  0.000  0.000  0.000   1.18  46.53   0.54      0   6669     44.9   1.60   0.00   0.65    3.91    3.99    3.99    3.97    2.71    2.66    0.00    0.00    0.00    0.00      0      0      0       0     490  0.00
