*SOIL TEMPERATURE OUTPUT FILE (DAILY)

*DSSAT Cropping System Model Ver. 4.7.5.008 -release  JAN 15, 2021 21:49:57

*RUN   1        : ERiMA DCC1                MZCER047 ETMZpolo    1
 MODEL          : MZCER047 - Maize
 EXPERIMENT     : ETMZpolo SN MELKSSAL
 DATA PATH      : C:\Users\kpodo\Documents\GitHub\ET_DSS_hist_Eunjin\TEST\
 TREATMENT  1   : ERiMA DCC1                MZCER047
  
! TAV  =    20.5
! TAMP =     4.1
!               Temperature (oC) by soil depth (cm):
!               Surface     0-5    5-15   15-20   20-35   35-50   50-65   65-81   81-97  97-118 118-200
@YEAR DOY   DAS    TS0D    TS1D    TS2D    TS3D    TS4D    TS5D    TS6D    TS7D    TS8D    TS9D    TS10
 1991 165     1    26.8    26.8    26.5    26.3    26.1    25.7    25.3    24.9    24.6    24.2    23.8
 1991 166     2    27.5    27.5    27.2    27.0    26.7    26.2    25.8    25.5    25.1    24.7    24.2
 1991 167     3    28.2    28.1    27.8    27.6    27.2    26.8    26.3    25.9    25.5    25.1    24.6
 1991 168     4    29.0    28.9    28.6    28.3    28.0    27.5    27.0    26.5    26.1    25.6    25.1
 1991 169     5    29.9    29.8    29.5    29.2    28.8    28.3    27.7    27.2    26.8    26.2    25.7
 1991 170     6    29.7    29.6    29.3    29.0    28.6    28.1    27.6    27.1    26.6    26.1    25.5
 1991 171     7    28.7    28.6    28.3    28.1    27.7    27.2    26.8    26.3    25.9    25.4    24.9
 1991 172     8    28.2    28.1    27.8    27.6    27.3    26.8    26.4    26.0    25.6    25.1    24.6
 1991 173     9    27.4    27.4    27.1    26.9    26.6    26.2    25.8    25.4    25.1    24.7    24.2
 1991 174    10    26.9    26.9    26.6    26.4    26.2    25.8    25.4    25.0    24.7    24.3    23.9
 1991 175    11    26.8    26.8    26.6    26.4    26.1    25.7    25.3    25.0    24.6    24.3    23.9
 1991 176    12    27.8    27.8    27.5    27.3    27.0    26.6    26.1    25.7    25.4    24.9    24.5
 1991 177    13    27.1    27.0    26.8    26.6    26.3    25.9    25.6    25.2    24.8    24.5    24.0
 1991 178    14    27.1    27.0    26.8    26.6    26.3    25.9    25.6    25.2    24.8    24.5    24.1
 1991 179    15    26.9    26.8    26.6    26.4    26.2    25.8    25.4    25.1    24.7    24.3    23.9
 1991 180    16    26.1    26.0    25.8    25.7    25.4    25.1    24.8    24.5    24.2    23.8    23.5
 1991 181    17    25.0    24.9    24.8    24.6    24.4    24.2    23.9    23.6    23.4    23.1    22.8
 1991 182    18    25.4    25.4    25.2    25.0    24.8    24.5    24.2    24.0    23.7    23.4    23.1
 1991 183    19    25.2    25.2    25.0    24.9    24.7    24.4    24.1    23.8    23.6    23.3    23.0
 1991 184    20    24.9    24.9    24.7    24.6    24.4    24.1    23.9    23.6    23.4    23.1    22.8
 1991 185    21    24.8    24.8    24.7    24.5    24.3    24.1    23.8    23.6    23.3    23.1    22.8
 1991 186    22    25.0    24.9    24.8    24.6    24.5    24.2    23.9    23.7    23.4    23.2    22.9
 1991 187    23    25.0    24.9    24.8    24.6    24.5    24.2    23.9    23.7    23.4    23.2    22.9
 1991 188    24    25.1    25.1    24.9    24.8    24.6    24.3    24.1    23.8    23.6    23.3    23.0
 1991 189    25    24.8    24.8    24.6    24.5    24.3    24.1    23.8    23.6    23.3    23.1    22.8
 1991 190    26    25.2    25.1    25.0    24.8    24.6    24.4    24.1    23.9    23.6    23.3    23.0
 1991 191    27    25.0    25.0    24.8    24.7    24.5    24.3    24.0    23.8    23.5    23.2    23.0
 1991 192    28    24.7    24.7    24.6    24.4    24.3    24.0    23.8    23.5    23.3    23.1    22.8
 1991 193    29    24.3    24.2    24.1    24.0    23.9    23.6    23.4    23.2    23.0    22.8    22.5
 1991 194    30    24.4    24.3    24.2    24.1    23.9    23.7    23.5    23.3    23.1    22.9    22.6
 1991 195    31    23.8    23.8    23.7    23.6    23.4    23.3    23.1    22.9    22.7    22.5    22.3
 1991 196    32    23.7    23.6    23.5    23.4    23.3    23.1    23.0    22.8    22.6    22.4    22.2
 1991 197    33    23.4    23.3    23.2    23.2    23.0    22.9    22.7    22.6    22.4    22.2    22.0
 1991 198    34    22.9    22.9    22.8    22.7    22.6    22.5    22.3    22.2    22.1    21.9    21.8
 1991 199    35    22.5    22.5    22.4    22.3    22.3    22.1    22.0    21.9    21.8    21.7    21.5
 1991 200    36    22.7    22.7    22.6    22.6    22.5    22.4    22.2    22.1    22.0    21.8    21.7
 1991 201    37    22.9    22.8    22.8    22.7    22.6    22.5    22.3    22.2    22.1    21.9    21.8
 1991 202    38    23.2    23.2    23.1    23.0    22.9    22.8    22.6    22.5    22.3    22.2    22.0
 1991 203    39    23.5    23.5    23.4    23.3    23.2    23.1    22.9    22.7    22.6    22.4    22.2
 1991 204    40    23.8    23.8    23.7    23.6    23.5    23.3    23.1    23.0    22.8    22.6    22.4
 1991 205    41    24.3    24.2    24.1    24.0    23.9    23.7    23.5    23.3    23.1    22.9    22.6
 1991 206    42    24.6    24.6    24.4    24.3    24.2    24.0    23.8    23.5    23.3    23.1    22.8
 1991 207    43    25.2    25.2    25.0    24.9    24.7    24.5    24.2    24.0    23.7    23.5    23.2
 1991 208    44    24.8    24.8    24.7    24.5    24.4    24.2    23.9    23.7    23.5    23.3    23.0
 1991 209    45    24.6    24.6    24.4    24.3    24.2    24.0    23.8    23.6    23.4    23.1    22.9
 1991 210    46    24.3    24.2    24.1    24.0    23.9    23.7    23.5    23.3    23.1    22.9    22.7
 1991 211    47    23.9    23.8    23.7    23.7    23.5    23.4    23.2    23.0    22.9    22.7    22.5
 1991 212    48    23.1    23.0    23.0    22.9    22.8    22.7    22.6    22.4    22.3    22.2    22.0
 1991 213    49    23.5    23.5    23.4    23.3    23.2    23.1    22.9    22.8    22.6    22.5    22.3
 1991 214    50    24.0    24.0    23.9    23.8    23.7    23.5    23.4    23.2    23.0    22.8    22.6
 1991 215    51    23.9    23.9    23.8    23.7    23.6    23.4    23.3    23.1    22.9    22.7    22.5
 1991 216    52    24.2    24.2    24.1    24.0    23.9    23.7    23.5    23.3    23.2    23.0    22.7
 1991 217    53    24.2    24.2    24.1    24.0    23.9    23.7    23.5    23.4    23.2    23.0    22.8
 1991 218    54    24.3    24.3    24.2    24.1    23.9    23.8    23.6    23.4    23.2    23.0    22.8
 1991 219    55    23.8    23.7    23.7    23.6    23.5    23.3    23.2    23.0    22.9    22.7    22.5
 1991 220    56    23.9    23.8    23.7    23.7    23.6    23.4    23.3    23.1    22.9    22.8    22.6
 1991 221    57    23.3    23.2    23.2    23.1    23.0    22.9    22.8    22.7    22.5    22.4    22.2
 1991 222    58    23.4    23.4    23.3    23.3    23.2    23.1    22.9    22.8    22.7    22.5    22.3
 1991 223    59    23.3    23.3    23.2    23.2    23.1    23.0    22.8    22.7    22.6    22.4    22.3
 1991 224    60    23.5    23.5    23.4    23.4    23.3    23.1    23.0    22.9    22.7    22.6    22.4
 1991 225    61    23.5    23.5    23.4    23.4    23.3    23.2    23.0    22.9    22.7    22.6    22.4
 1991 226    62    24.1    24.1    24.0    23.9    23.8    23.6    23.5    23.3    23.2    23.0    22.8
 1991 227    63    23.9    23.9    23.8    23.7    23.6    23.5    23.3    23.2    23.0    22.9    22.7
 1991 228    64    23.6    23.5    23.5    23.4    23.3    23.2    23.1    22.9    22.8    22.7    22.5
 1991 229    65    23.2    23.2    23.2    23.1    23.0    22.9    22.8    22.7    22.6    22.5    22.3
 1991 230    66    23.4    23.4    23.3    23.3    23.2    23.1    23.0    22.9    22.7    22.6    22.4
 1991 231    67    23.6    23.6    23.6    23.5    23.4    23.3    23.2    23.0    22.9    22.7    22.6
 1991 232    68    24.2    24.1    24.1    24.0    23.9    23.7    23.6    23.4    23.3    23.1    22.9
 1991 233    69    24.6    24.6    24.5    24.4    24.3    24.1    24.0    23.8    23.6    23.4    23.2
 1991 234    70    24.7    24.7    24.6    24.5    24.4    24.2    24.0    23.8    23.7    23.5    23.2
 1991 235    71    24.2    24.2    24.1    24.0    23.9    23.8    23.6    23.5    23.3    23.1    22.9
 1991 236    72    23.7    23.6    23.6    23.5    23.4    23.3    23.2    23.1    22.9    22.8    22.6
 1991 237    73    23.3    23.3    23.2    23.2    23.1    23.0    22.9    22.8    22.7    22.5    22.4
 1991 238    74    23.4    23.4    23.4    23.3    23.2    23.1    23.0    22.9    22.8    22.7    22.5
 1991 239    75    23.8    23.7    23.7    23.6    23.5    23.4    23.3    23.2    23.0    22.9    22.7
 1991 240    76    24.0    24.0    23.9    23.9    23.8    23.6    23.5    23.4    23.2    23.1    22.9
 1991 241    77    24.0    24.0    23.9    23.9    23.8    23.7    23.5    23.4    23.2    23.1    22.9
 1991 242    78    24.4    24.4    24.3    24.2    24.1    24.0    23.8    23.6    23.5    23.3    23.1
 1991 243    79    24.7    24.6    24.5    24.5    24.3    24.2    24.0    23.8    23.7    23.5    23.3
 1991 244    80    24.8    24.7    24.6    24.6    24.4    24.3    24.1    23.9    23.8    23.6    23.3
 1991 245    81    25.1    25.0    24.9    24.8    24.7    24.5    24.4    24.2    24.0    23.8    23.5
 1991 246    82    25.1    25.1    25.0    24.9    24.8    24.6    24.4    24.2    24.0    23.8    23.6
 1991 247    83    25.2    25.2    25.1    25.0    24.9    24.7    24.5    24.3    24.1    23.9    23.7
 1991 248    84    25.1    25.1    25.0    24.9    24.8    24.6    24.4    24.2    24.1    23.8    23.6
 1991 249    85    25.7    25.7    25.6    25.5    25.3    25.1    24.9    24.7    24.5    24.2    24.0
 1991 250    86    26.3    26.3    26.2    26.0    25.9    25.6    25.4    25.1    24.9    24.6    24.3
 1991 251    87    26.8    26.8    26.6    26.5    26.3    26.0    25.8    25.5    25.2    24.9    24.6
 1991 252    88    27.1    27.1    26.9    26.8    26.6    26.3    26.0    25.7    25.5    25.1    24.8
 1991 253    89    27.3    27.3    27.1    26.9    26.7    26.4    26.2    25.9    25.6    25.3    24.9
 1991 254    90    27.2    27.1    26.9    26.8    26.6    26.3    26.0    25.7    25.5    25.1    24.8
 1991 255    91    26.5    26.5    26.4    26.2    26.1    25.8    25.6    25.3    25.1    24.8    24.5
 1991 256    92    26.6    26.6    26.4    26.3    26.1    25.9    25.6    25.4    25.1    24.9    24.5
 1991 257    93    26.5    26.5    26.4    26.2    26.1    25.8    25.6    25.3    25.1    24.8    24.5
 1991 258    94    26.8    26.7    26.6    26.5    26.3    26.0    25.8    25.5    25.3    25.0    24.6
 1991 259    95    27.0    26.9    26.8    26.6    26.4    26.2    25.9    25.6    25.4    25.1    24.7
 1991 260    96    27.7    27.7    27.5    27.3    27.1    26.8    26.5    26.2    25.9    25.6    25.2
 1991 261    97    27.2    27.2    27.0    26.9    26.7    26.4    26.1    25.8    25.5    25.2    24.9
 1991 262    98    27.0    26.9    26.8    26.7    26.5    26.2    25.9    25.7    25.4    25.1    24.8
 1991 263    99    27.0    27.0    26.8    26.7    26.5    26.2    25.9    25.7    25.4    25.1    24.8
 1991 264   100    27.0    26.9    26.8    26.6    26.5    26.2    25.9    25.6    25.4    25.1    24.7
 1991 265   101    25.8    25.8    25.7    25.6    25.4    25.2    25.0    24.8    24.6    24.3    24.1
 1991 266   102    26.6    26.5    26.4    26.3    26.1    25.8    25.6    25.3    25.1    24.8    24.5
 1991 267   103    26.7    26.7    26.5    26.4    26.2    25.9    25.7    25.4    25.2    24.9    24.6
 1991 268   104    25.9    25.9    25.8    25.7    25.5    25.3    25.1    24.9    24.6    24.4    24.1
 1991 269   105    25.5    25.4    25.3    25.2    25.1    24.9    24.7    24.5    24.3    24.1    23.8
 1991 270   106    25.7    25.6    25.5    25.4    25.3    25.1    24.9    24.7    24.5    24.2    23.9
 1991 271   107    25.2    25.1    25.0    24.9    24.8    24.6    24.5    24.3    24.1    23.9    23.7
 1991 272   108    25.4    25.4    25.3    25.2    25.0    24.8    24.6    24.5    24.3    24.0    23.8
 1991 273   109    26.1    26.1    26.0    25.9    25.7    25.5    25.2    25.0    24.8    24.5    24.2
 1991 274   110    26.8    26.8    26.6    26.5    26.3    26.0    25.8    25.5    25.2    24.9    24.6
 1991 275   111    27.9    27.8    27.6    27.5    27.2    26.9    26.6    26.3    25.9    25.6    25.2
 1991 276   112    28.9    28.9    28.6    28.4    28.2    27.8    27.4    27.0    26.6    26.2    25.8
 1991 277   113    29.4    29.3    29.1    28.9    28.6    28.1    27.7    27.3    26.9    26.5    26.0
 1991 278   114    29.1    29.0    28.8    28.6    28.3    27.9    27.5    27.1    26.7    26.3    25.9
 1991 279   115    28.9    28.8    28.6    28.4    28.1    27.7    27.3    27.0    26.6    26.2    25.7
 1991 280   116    28.0    27.9    27.8    27.6    27.3    27.0    26.7    26.4    26.0    25.7    25.3
 1991 281   117    27.5    27.4    27.3    27.1    26.9    26.6    26.3    26.0    25.7    25.4    25.0
 1991 282   118    27.1    27.0    26.9    26.7    26.5    26.2    26.0    25.7    25.4    25.1    24.8
 1991 283   119    27.5    27.4    27.3    27.1    26.9    26.6    26.3    26.0    25.7    25.4    25.0
 1991 284   120    27.5    27.5    27.3    27.1    26.9    26.6    26.3    26.0    25.7    25.4    25.0
 1991 285   121    28.1    28.0    27.8    27.7    27.4    27.1    26.7    26.4    26.1    25.7    25.3
 1991 286   122    27.4    27.4    27.2    27.1    26.9    26.5    26.3    26.0    25.7    25.3    25.0
 1991 287   123    26.9    26.8    26.7    26.6    26.4    26.1    25.8    25.6    25.3    25.0    24.7
 1991 288   124    26.6    26.6    26.5    26.3    26.1    25.9    25.6    25.4    25.1    24.9    24.5
 1991 289   125    26.4    26.3    26.2    26.1    25.9    25.7    25.4    25.2    25.0    24.7    24.4
 1991 290   126    26.1    26.0    25.9    25.8    25.6    25.4    25.2    25.0    24.7    24.5    24.2
 1991 291   127    26.4    26.3    26.2    26.1    25.9    25.7    25.4    25.2    24.9    24.7    24.4
 1991 292   128    26.7    26.6    26.5    26.3    26.2    25.9    25.6    25.4    25.1    24.9    24.6

*DSSAT Cropping System Model Ver. 4.7.5.008 -release  JAN 15, 2021 21:49:57

*RUN   2        : ERiMA DCC1                MZCER047 ETMZpolo    1
 MODEL          : MZCER047 - Maize
 EXPERIMENT     : ETMZpolo SN MELKSSAL
 DATA PATH      : C:\Users\kpodo\Documents\GitHub\ET_DSS_hist_Eunjin\TEST\
 TREATMENT  1   : ERiMA DCC1                MZCER047
  
! TAV  =    20.5
! TAMP =     4.1
!               Temperature (oC) by soil depth (cm):
!               Surface     0-5    5-15   15-20   20-35   35-50   50-65   65-81   81-97  97-118 118-200
@YEAR DOY   DAS    TS0D    TS1D    TS2D    TS3D    TS4D    TS5D    TS6D    TS7D    TS8D    TS9D    TS10
 1992 165     1    27.6    27.6    27.3    27.1    26.8    26.3    25.9    25.5    25.1    24.7    24.3
 1992 166     2    27.7    27.6    27.3    27.1    26.8    26.4    25.9    25.6    25.2    24.7    24.3
 1992 167     3    27.7    27.7    27.4    27.2    26.9    26.4    26.0    25.6    25.2    24.8    24.4
 1992 168     4    28.1    28.0    27.7    27.5    27.2    26.7    26.3    25.9    25.5    25.0    24.6
 1992 169     5    28.4    28.3    28.0    27.7    27.4    26.9    26.5    26.1    25.7    25.2    24.7
 1992 170     6    28.3    28.2    28.0    27.7    27.4    26.9    26.5    26.0    25.6    25.2    24.7
 1992 171     7    28.4    28.3    28.1    27.8    27.5    27.0    26.6    26.2    25.7    25.3    24.8
 1992 172     8    28.8    28.7    28.4    28.1    27.8    27.3    26.8    26.4    26.0    25.5    25.0
 1992 173     9    28.5    28.4    28.1    27.9    27.5    27.1    26.6    26.2    25.8    25.3    24.8
 1992 174    10    27.6    27.5    27.2    27.0    26.7    26.3    25.9    25.5    25.1    24.7    24.3
 1992 175    11    27.7    27.6    27.4    27.2    26.9    26.4    26.0    25.6    25.2    24.8    24.4
 1992 176    12    27.7    27.6    27.4    27.2    26.9    26.4    26.0    25.6    25.2    24.8    24.4
 1992 177    13    27.3    27.2    27.0    26.7    26.5    26.0    25.7    25.3    24.9    24.5    24.1
 1992 178    14    27.2    27.1    26.9    26.7    26.4    26.0    25.6    25.2    24.9    24.5    24.1
 1992 179    15    28.1    28.0    27.7    27.5    27.2    26.8    26.3    25.9    25.5    25.1    24.6
 1992 180    16    27.2    27.1    26.9    26.7    26.4    26.0    25.7    25.3    24.9    24.5    24.1
 1992 181    17    26.5    26.4    26.2    26.0    25.8    25.4    25.1    24.8    24.4    24.1    23.7
 1992 182    18    25.4    25.3    25.2    25.0    24.8    24.5    24.2    23.9    23.7    23.4    23.1
 1992 183    19    25.1    25.1    24.9    24.8    24.6    24.3    24.0    23.8    23.5    23.2    22.9
 1992 184    20    24.9    24.9    24.7    24.6    24.4    24.1    23.9    23.6    23.4    23.1    22.8
 1992 185    21    25.6    25.5    25.4    25.2    25.0    24.7    24.4    24.1    23.8    23.5    23.2
 1992 186    22    25.9    25.9    25.7    25.5    25.3    25.0    24.7    24.4    24.1    23.8    23.4
 1992 187    23    26.2    26.2    26.0    25.8    25.6    25.2    24.9    24.6    24.3    24.0    23.6
 1992 188    24    26.2    26.2    26.0    25.8    25.6    25.2    24.9    24.6    24.3    24.0    23.6
 1992 189    25    26.3    26.2    26.0    25.9    25.6    25.3    25.0    24.7    24.4    24.0    23.7
 1992 190    26    26.6    26.5    26.4    26.2    25.9    25.6    25.2    24.9    24.6    24.3    23.9
 1992 191    27    26.6    26.5    26.3    26.1    25.9    25.5    25.2    24.9    24.6    24.2    23.9
 1992 192    28    26.7    26.7    26.5    26.3    26.0    25.7    25.3    25.0    24.7    24.3    24.0
 1992 193    29    26.7    26.7    26.5    26.3    26.0    25.7    25.4    25.0    24.7    24.3    24.0
 1992 194    30    25.8    25.7    25.6    25.4    25.2    24.9    24.6    24.3    24.0    23.7    23.4
 1992 195    31    25.5    25.5    25.3    25.2    25.0    24.7    24.4    24.1    23.9    23.6    23.3
 1992 196    32    25.1    25.0    24.9    24.8    24.6    24.3    24.1    23.8    23.6    23.3    23.0
 1992 197    33    24.8    24.8    24.6    24.5    24.3    24.1    23.9    23.6    23.4    23.1    22.9
 1992 198    34    24.0    24.0    23.9    23.8    23.6    23.4    23.2    23.0    22.9    22.6    22.4
 1992 199    35    24.3    24.2    24.1    24.0    23.9    23.6    23.4    23.2    23.0    22.8    22.6
 1992 200    36    24.0    24.0    23.9    23.8    23.6    23.4    23.3    23.1    22.9    22.7    22.4
 1992 201    37    24.1    24.0    23.9    23.8    23.7    23.5    23.3    23.1    22.9    22.7    22.5
 1992 202    38    23.9    23.8    23.8    23.7    23.5    23.3    23.2    23.0    22.8    22.6    22.4
 1992 203    39    23.8    23.8    23.7    23.6    23.5    23.3    23.1    22.9    22.8    22.6    22.4
 1992 204    40    23.8    23.8    23.7    23.6    23.5    23.3    23.1    22.9    22.8    22.6    22.4
 1992 205    41    23.6    23.6    23.5    23.4    23.3    23.1    23.0    22.8    22.6    22.5    22.2
 1992 206    42    24.0    23.9    23.8    23.7    23.6    23.4    23.3    23.1    22.9    22.7    22.5
 1992 207    43    24.7    24.6    24.5    24.4    24.3    24.0    23.8    23.6    23.4    23.2    22.9
 1992 208    44    25.2    25.2    25.0    24.9    24.7    24.5    24.3    24.0    23.8    23.5    23.3
 1992 209    45    24.8    24.8    24.6    24.5    24.4    24.2    23.9    23.7    23.5    23.3    23.0
 1992 210    46    24.6    24.6    24.5    24.4    24.2    24.0    23.8    23.6    23.4    23.2    22.9
 1992 211    47    24.1    24.1    24.0    23.9    23.8    23.6    23.4    23.2    23.1    22.9    22.6
 1992 212    48    24.1    24.0    23.9    23.8    23.7    23.5    23.4    23.2    23.0    22.8    22.6
 1992 213    49    24.2    24.2    24.1    24.0    23.9    23.7    23.5    23.3    23.1    22.9    22.7
 1992 214    50    24.3    24.2    24.1    24.0    23.9    23.7    23.5    23.4    23.2    23.0    22.7
 1992 215    51    24.3    24.2    24.1    24.0    23.9    23.7    23.5    23.4    23.2    23.0    22.7
 1992 216    52    24.3    24.3    24.2    24.1    23.9    23.8    23.6    23.4    23.2    23.0    22.8
 1992 217    53    23.4    23.4    23.3    23.3    23.2    23.0    22.9    22.8    22.6    22.5    22.3
 1992 218    54    23.3    23.3    23.2    23.2    23.1    22.9    22.8    22.7    22.5    22.4    22.2
 1992 219    55    24.0    24.0    23.9    23.8    23.7    23.5    23.4    23.2    23.0    22.8    22.6
 1992 220    56    23.8    23.8    23.7    23.7    23.6    23.4    23.2    23.1    22.9    22.8    22.6
 1992 221    57    23.5    23.5    23.4    23.4    23.3    23.1    23.0    22.9    22.7    22.6    22.4
 1992 222    58    24.5    24.4    24.3    24.2    24.1    23.9    23.8    23.6    23.4    23.2    23.0
 1992 223    59    24.1    24.0    23.9    23.9    23.8    23.6    23.4    23.3    23.1    22.9    22.7
 1992 224    60    23.3    23.3    23.2    23.2    23.1    23.0    22.9    22.7    22.6    22.5    22.3
 1992 225    61    23.6    23.6    23.5    23.4    23.3    23.2    23.1    22.9    22.8    22.6    22.4
 1992 226    62    23.5    23.5    23.4    23.4    23.3    23.1    23.0    22.9    22.7    22.6    22.4
 1992 227    63    22.5    22.5    22.5    22.4    22.4    22.3    22.2    22.2    22.1    22.0    21.8
 1992 228    64    22.5    22.5    22.5    22.4    22.4    22.3    22.2    22.1    22.1    22.0    21.8
 1992 229    65    22.3    22.3    22.2    22.2    22.2    22.1    22.0    22.0    21.9    21.8    21.7
 1992 230    66    22.1    22.1    22.0    22.0    22.0    21.9    21.9    21.8    21.8    21.7    21.6
 1992 231    67    22.1    22.1    22.1    22.1    22.0    22.0    21.9    21.9    21.8    21.7    21.6
 1992 232    68    22.3    22.3    22.3    22.3    22.2    22.2    22.1    22.0    22.0    21.9    21.8
 1992 233    69    22.2    22.2    22.2    22.1    22.1    22.1    22.0    22.0    21.9    21.8    21.7
 1992 234    70    22.3    22.3    22.3    22.2    22.2    22.2    22.1    22.0    22.0    21.9    21.8
 1992 235    71    22.3    22.3    22.3    22.2    22.2    22.2    22.1    22.0    22.0    21.9    21.8
 1992 236    72    22.5    22.5    22.5    22.5    22.4    22.4    22.3    22.2    22.1    22.0    21.9
 1992 237    73    23.0    23.0    22.9    22.9    22.9    22.8    22.7    22.6    22.5    22.4    22.2
 1992 238    74    23.2    23.2    23.2    23.1    23.1    23.0    22.9    22.8    22.7    22.5    22.4
 1992 239    75    23.6    23.6    23.5    23.5    23.4    23.3    23.2    23.1    22.9    22.8    22.6
 1992 240    76    23.7    23.7    23.7    23.6    23.5    23.4    23.3    23.2    23.0    22.9    22.7
 1992 241    77    23.9    23.8    23.8    23.7    23.6    23.5    23.4    23.3    23.1    23.0    22.8
 1992 242    78    23.5    23.5    23.4    23.4    23.3    23.2    23.1    23.0    22.9    22.7    22.6
 1992 243    79    23.2    23.2    23.1    23.1    23.0    22.9    22.9    22.8    22.7    22.5    22.4
 1992 244    80    22.8    22.8    22.8    22.8    22.7    22.7    22.6    22.5    22.4    22.3    22.2
 1992 245    81    22.8    22.8    22.8    22.8    22.7    22.7    22.6    22.5    22.4    22.3    22.2
 1992 246    82    22.4    22.4    22.4    22.4    22.4    22.3    22.3    22.2    22.1    22.1    22.0
 1992 247    83    22.6    22.6    22.6    22.6    22.6    22.5    22.4    22.4    22.3    22.2    22.1
 1992 248    84    22.9    22.9    22.8    22.8    22.8    22.7    22.6    22.6    22.5    22.4    22.3
 1992 249    85    22.9    22.9    22.9    22.8    22.8    22.7    22.7    22.6    22.5    22.4    22.3
 1992 250    86    23.0    22.9    22.9    22.9    22.8    22.8    22.7    22.6    22.5    22.4    22.3
 1992 251    87    23.0    23.0    23.0    22.9    22.9    22.8    22.7    22.7    22.6    22.5    22.4
 1992 252    88    22.8    22.8    22.8    22.7    22.7    22.6    22.6    22.5    22.4    22.4    22.2
 1992 253    89    22.6    22.6    22.6    22.6    22.5    22.5    22.4    22.4    22.3    22.2    22.2
 1992 254    90    22.9    22.9    22.8    22.8    22.8    22.7    22.7    22.6    22.5    22.4    22.3
 1992 255    91    22.7    22.7    22.7    22.7    22.6    22.6    22.5    22.5    22.4    22.3    22.2
 1992 256    92    23.1    23.1    23.1    23.0    23.0    22.9    22.9    22.8    22.7    22.6    22.5
 1992 257    93    23.2    23.2    23.2    23.2    23.1    23.0    23.0    22.9    22.8    22.7    22.6
 1992 258    94    23.6    23.6    23.5    23.5    23.4    23.3    23.2    23.1    23.0    22.9    22.8
 1992 259    95    23.7    23.7    23.6    23.6    23.5    23.4    23.3    23.2    23.1    23.0    22.8
 1992 260    96    23.9    23.9    23.9    23.8    23.7    23.6    23.5    23.4    23.3    23.1    23.0
 1992 261    97    23.8    23.8    23.8    23.7    23.7    23.5    23.4    23.3    23.2    23.1    22.9
 1992 262    98    24.1    24.1    24.1    24.0    23.9    23.8    23.7    23.6    23.4    23.3    23.1
 1992 263    99    24.2    24.2    24.2    24.1    24.0    23.9    23.8    23.7    23.5    23.4    23.2
 1992 264   100    24.2    24.2    24.1    24.0    24.0    23.9    23.7    23.6    23.5    23.3    23.2
 1992 265   101    23.5    23.5    23.4    23.4    23.4    23.3    23.2    23.1    23.0    22.9    22.8
 1992 266   102    23.5    23.5    23.4    23.4    23.4    23.3    23.2    23.1    23.0    22.9    22.8
 1992 267   103    23.4    23.4    23.4    23.3    23.3    23.2    23.1    23.0    23.0    22.9    22.7
 1992 268   104    23.3    23.3    23.3    23.2    23.2    23.1    23.0    23.0    22.9    22.8    22.7
 1992 269   105    23.4    23.4    23.4    23.4    23.3    23.2    23.2    23.1    23.0    22.9    22.8
 1992 270   106    24.3    24.3    24.2    24.2    24.1    24.0    23.8    23.7    23.6    23.4    23.3
 1992 271   107    24.4    24.4    24.4    24.3    24.2    24.1    24.0    23.8    23.7    23.5    23.4
 1992 272   108    24.1    24.1    24.1    24.0    23.9    23.8    23.7    23.6    23.5    23.3    23.2
 1992 273   109    23.8    23.8    23.8    23.7    23.7    23.6    23.5    23.4    23.3    23.1    23.0
 1992 274   110    23.8    23.8    23.7    23.7    23.6    23.5    23.4    23.3    23.2    23.1    23.0
 1992 275   111    24.1    24.1    24.1    24.0    23.9    23.8    23.7    23.6    23.5    23.3    23.2
 1992 276   112    24.3    24.3    24.3    24.2    24.1    24.0    23.9    23.8    23.6    23.5    23.3
 1992 277   113    24.1    24.1    24.0    24.0    23.9    23.8    23.7    23.6    23.5    23.3    23.2
 1992 278   114    24.3    24.2    24.2    24.1    24.1    23.9    23.8    23.7    23.6    23.4    23.3
 1992 279   115    24.2    24.2    24.1    24.1    24.0    23.9    23.8    23.7    23.5    23.4    23.2
 1992 280   116    23.7    23.7    23.7    23.7    23.6    23.5    23.4    23.3    23.2    23.1    23.0
 1992 281   117    23.5    23.5    23.5    23.4    23.4    23.3    23.2    23.1    23.1    22.9    22.8
 1992 282   118    24.2    24.2    24.1    24.0    24.0    23.9    23.8    23.6    23.5    23.4    23.2
 1992 283   119    24.8    24.8    24.7    24.7    24.6    24.4    24.3    24.1    24.0    23.8    23.6
 1992 284   120    24.3    24.2    24.2    24.1    24.1    23.9    23.8    23.7    23.6    23.4    23.3
 1992 285   121    24.0    24.0    24.0    23.9    23.9    23.8    23.7    23.6    23.5    23.3    23.2
 1992 286   122    24.0    23.9    23.9    23.9    23.8    23.7    23.6    23.5    23.4    23.3    23.1
 1992 287   123    24.1    24.1    24.0    24.0    23.9    23.8    23.7    23.6    23.5    23.4    23.2
 1992 288   124    24.0    24.0    24.0    23.9    23.9    23.8    23.7    23.6    23.4    23.3    23.2
 1992 289   125    24.9    24.9    24.8    24.7    24.6    24.5    24.3    24.2    24.0    23.9    23.7
 1992 290   126    25.5    25.5    25.4    25.3    25.1    25.0    24.8    24.6    24.4    24.2    24.0
 1992 291   127    26.0    26.0    25.9    25.7    25.6    25.4    25.2    25.0    24.8    24.6    24.3
 1992 292   128    26.0    26.0    25.9    25.8    25.6    25.4    25.2    25.0    24.8    24.6    24.3
 1992 293   129    25.7    25.7    25.6    25.5    25.4    25.2    25.0    24.8    24.6    24.4    24.1
 1992 294   130    25.2    25.2    25.1    25.0    24.9    24.7    24.6    24.4    24.2    24.0    23.8
 1992 295   131    25.1    25.1    25.0    24.9    24.8    24.6    24.5    24.3    24.1    24.0    23.7
 1992 296   132    25.2    25.1    25.1    25.0    24.9    24.7    24.5    24.4    24.2    24.0    23.8
 1992 297   133    25.4    25.4    25.3    25.2    25.1    24.9    24.7    24.5    24.4    24.2    23.9
 1992 298   134    25.5    25.5    25.4    25.3    25.2    25.0    24.8    24.6    24.4    24.2    24.0
 1992 299   135    25.8    25.7    25.6    25.5    25.4    25.2    25.0    24.8    24.6    24.4    24.1
 1992 300   136    25.6    25.5    25.4    25.3    25.2    25.0    24.8    24.6    24.5    24.2    24.0
 1992 301   137    25.3    25.3    25.2    25.1    25.0    24.8    24.6    24.5    24.3    24.1    23.9
 1992 302   138    25.1    25.1    25.0    24.9    24.8    24.6    24.5    24.3    24.1    23.9    23.7
 1992 303   139    25.2    25.1    25.1    25.0    24.9    24.7    24.5    24.3    24.2    24.0    23.8
 1992 304   140    25.3    25.3    25.2    25.1    25.0    24.8    24.6    24.4    24.3    24.1    23.8
 1992 305   141    25.0    25.0    24.9    24.8    24.7    24.5    24.4    24.2    24.1    23.9    23.7

*DSSAT Cropping System Model Ver. 4.7.5.008 -release  JAN 15, 2021 21:49:57

*RUN   3        : ERiMA DCC1                MZCER047 ETMZpolo    1
 MODEL          : MZCER047 - Maize
 EXPERIMENT     : ETMZpolo SN MELKSSAL
 DATA PATH      : C:\Users\kpodo\Documents\GitHub\ET_DSS_hist_Eunjin\TEST\
 TREATMENT  1   : ERiMA DCC1                MZCER047
  
! TAV  =    20.5
! TAMP =     4.1
!               Temperature (oC) by soil depth (cm):
!               Surface     0-5    5-15   15-20   20-35   35-50   50-65   65-81   81-97  97-118 118-200
@YEAR DOY   DAS    TS0D    TS1D    TS2D    TS3D    TS4D    TS5D    TS6D    TS7D    TS8D    TS9D    TS10
 1993 165     1    29.9    29.8    29.5    29.2    28.8    28.3    27.8    27.2    26.7    26.2    25.7
 1993 166     2    29.4    29.3    29.0    28.8    28.4    27.9    27.4    26.9    26.4    25.9    25.4
 1993 167     3    29.1    29.0    28.7    28.5    28.1    27.6    27.1    26.6    26.2    25.7    25.2
 1993 168     4    28.4    28.4    28.1    27.8    27.5    27.0    26.6    26.1    25.7    25.3    24.8
 1993 169     5    27.6    27.5    27.3    27.1    26.8    26.3    25.9    25.5    25.2    24.7    24.3
 1993 170     6    27.1    27.1    26.8    26.6    26.3    25.9    25.6    25.2    24.8    24.4    24.0
 1993 171     7    27.1    27.1    26.8    26.6    26.3    25.9    25.6    25.2    24.8    24.4    24.0
 1993 172     8    27.3    27.2    26.9    26.7    26.4    26.0    25.6    25.3    24.9    24.5    24.1
 1993 173     9    27.7    27.6    27.4    27.2    26.9    26.4    26.0    25.6    25.2    24.8    24.4
 1993 174    10    28.3    28.2    27.9    27.7    27.4    26.9    26.5    26.0    25.6    25.2    24.7
 1993 175    11    28.1    28.0    27.8    27.5    27.2    26.8    26.3    25.9    25.5    25.1    24.6
 1993 176    12    27.3    27.2    27.0    26.7    26.5    26.1    25.7    25.3    24.9    24.5    24.1
 1993 177    13    25.7    25.7    25.5    25.3    25.1    24.8    24.5    24.2    23.9    23.6    23.2
 1993 178    14    25.4    25.3    25.2    25.0    24.8    24.5    24.2    23.9    23.6    23.4    23.0
 1993 179    15    25.3    25.3    25.1    24.9    24.7    24.4    24.1    23.9    23.6    23.3    23.0
 1993 180    16    25.6    25.6    25.4    25.2    25.0    24.7    24.4    24.1    23.8    23.5    23.2
 1993 181    17    25.6    25.5    25.4    25.2    25.0    24.7    24.4    24.1    23.8    23.5    23.2
 1993 182    18    26.2    26.2    26.0    25.8    25.6    25.2    24.9    24.6    24.3    23.9    23.6
 1993 183    19    26.0    26.0    25.8    25.6    25.4    25.1    24.7    24.4    24.1    23.8    23.5
 1993 184    20    25.2    25.1    25.0    24.8    24.6    24.3    24.1    23.8    23.5    23.3    23.0
 1993 185    21    25.2    25.1    25.0    24.8    24.6    24.3    24.1    23.8    23.6    23.3    23.0
 1993 186    22    25.0    25.0    24.8    24.7    24.5    24.2    24.0    23.7    23.5    23.2    22.9
 1993 187    23    24.4    24.3    24.2    24.1    23.9    23.7    23.5    23.2    23.0    22.8    22.5
 1993 188    24    24.0    24.0    23.9    23.8    23.6    23.4    23.2    23.0    22.8    22.6    22.3
 1993 189    25    24.8    24.7    24.6    24.5    24.3    24.0    23.8    23.5    23.3    23.1    22.8
 1993 190    26    24.6    24.6    24.4    24.3    24.1    23.9    23.7    23.4    23.2    23.0    22.7
 1993 191    27    25.2    25.2    25.0    24.9    24.7    24.4    24.2    23.9    23.7    23.4    23.1
 1993 192    28    25.8    25.7    25.5    25.4    25.2    24.9    24.6    24.3    24.0    23.7    23.4
 1993 193    29    26.0    25.9    25.8    25.6    25.4    25.1    24.8    24.5    24.2    23.9    23.6
 1993 194    30    25.3    25.3    25.1    25.0    24.8    24.5    24.3    24.0    23.8    23.5    23.2
 1993 195    31    25.0    24.9    24.8    24.7    24.5    24.2    24.0    23.7    23.5    23.2    23.0
 1993 196    32    24.8    24.7    24.6    24.5    24.3    24.1    23.8    23.6    23.4    23.1    22.9
 1993 197    33    24.9    24.8    24.7    24.6    24.4    24.1    23.9    23.7    23.5    23.2    22.9
 1993 198    34    24.5    24.5    24.4    24.2    24.1    23.9    23.7    23.4    23.2    23.0    22.7
 1993 199    35    24.4    24.4    24.2    24.1    24.0    23.8    23.6    23.3    23.1    22.9    22.7
 1993 200    36    24.0    24.0    23.8    23.7    23.6    23.4    23.2    23.0    22.9    22.7    22.4
 1993 201    37    23.7    23.7    23.6    23.5    23.4    23.2    23.0    22.8    22.7    22.5    22.3
 1993 202    38    23.6    23.5    23.5    23.4    23.3    23.1    22.9    22.7    22.6    22.4    22.2
 1993 203    39    23.4    23.4    23.3    23.2    23.1    22.9    22.8    22.6    22.5    22.3    22.1
 1993 204    40    23.1    23.1    23.0    23.0    22.9    22.7    22.6    22.4    22.3    22.1    22.0
 1993 205    41    23.2    23.2    23.1    23.0    22.9    22.8    22.7    22.5    22.4    22.2    22.0
 1993 206    42    23.1    23.1    23.0    22.9    22.8    22.7    22.5    22.4    22.3    22.1    21.9
 1993 207    43    23.2    23.1    23.1    23.0    22.9    22.8    22.6    22.5    22.3    22.2    22.0
 1993 208    44    23.3    23.3    23.2    23.1    23.0    22.9    22.8    22.6    22.5    22.3    22.1
 1993 209    45    23.6    23.6    23.5    23.4    23.3    23.2    23.0    22.8    22.7    22.5    22.3
 1993 210    46    23.9    23.9    23.8    23.7    23.6    23.4    23.2    23.1    22.9    22.7    22.5
 1993 211    47    24.4    24.4    24.3    24.1    24.0    23.8    23.6    23.4    23.2    23.0    22.8
 1993 212    48    24.3    24.2    24.1    24.0    23.9    23.7    23.5    23.4    23.2    23.0    22.7
 1993 213    49    24.1    24.1    24.0    23.9    23.8    23.6    23.4    23.2    23.1    22.9    22.6
 1993 214    50    23.8    23.8    23.7    23.6    23.5    23.4    23.2    23.0    22.9    22.7    22.5
 1993 215    51    23.5    23.5    23.4    23.4    23.3    23.1    23.0    22.8    22.7    22.5    22.3
 1993 216    52    23.2    23.2    23.2    23.1    23.0    22.9    22.7    22.6    22.5    22.3    22.2
 1993 217    53    23.2    23.2    23.1    23.0    23.0    22.8    22.7    22.6    22.4    22.3    22.1
 1993 218    54    23.7    23.7    23.6    23.5    23.4    23.3    23.1    23.0    22.8    22.6    22.4
 1993 219    55    23.4    23.4    23.3    23.3    23.2    23.0    22.9    22.8    22.6    22.5    22.3
 1993 220    56    23.8    23.8    23.7    23.6    23.5    23.3    23.2    23.0    22.9    22.7    22.5
 1993 221    57    24.6    24.6    24.5    24.4    24.2    24.0    23.8    23.7    23.5    23.2    23.0
 1993 222    58    25.4    25.3    25.2    25.1    24.9    24.7    24.5    24.3    24.0    23.8    23.5
 1993 223    59    25.5    25.5    25.4    25.2    25.1    24.8    24.6    24.4    24.1    23.9    23.6
 1993 224    60    26.1    26.0    25.9    25.8    25.6    25.3    25.1    24.8    24.5    24.3    23.9
 1993 225    61    25.6    25.5    25.4    25.3    25.1    24.9    24.7    24.4    24.2    23.9    23.6
 1993 226    62    24.6    24.6    24.5    24.4    24.3    24.1    23.9    23.7    23.5    23.3    23.1
 1993 227    63    23.9    23.9    23.8    23.8    23.7    23.5    23.4    23.2    23.1    22.9    22.7
 1993 228    64    24.0    24.0    23.9    23.8    23.7    23.6    23.4    23.3    23.1    22.9    22.7
 1993 229    65    24.3    24.3    24.2    24.1    24.0    23.8    23.7    23.5    23.3    23.1    22.9
 1993 230    66    24.9    24.9    24.8    24.7    24.5    24.4    24.2    24.0    23.8    23.5    23.3
 1993 231    67    25.7    25.7    25.5    25.4    25.2    25.0    24.8    24.6    24.3    24.1    23.8
 1993 232    68    25.9    25.9    25.8    25.6    25.5    25.2    25.0    24.7    24.5    24.2    23.9
 1993 233    69    25.7    25.7    25.6    25.5    25.3    25.1    24.8    24.6    24.4    24.1    23.8
 1993 234    70    25.7    25.7    25.5    25.4    25.3    25.0    24.8    24.6    24.4    24.1    23.8
 1993 235    71    25.9    25.9    25.8    25.6    25.5    25.2    25.0    24.8    24.5    24.3    24.0
 1993 236    72    25.1    25.0    24.9    24.8    24.7    24.5    24.3    24.1    23.9    23.7    23.5
 1993 237    73    24.9    24.9    24.8    24.7    24.6    24.4    24.2    24.0    23.8    23.6    23.4
 1993 238    74    24.1    24.1    24.0    24.0    23.9    23.7    23.6    23.4    23.3    23.1    22.9
 1993 239    75    23.4    23.4    23.3    23.3    23.2    23.1    23.0    22.9    22.8    22.7    22.5
 1993 240    76    22.6    22.6    22.5    22.5    22.5    22.4    22.4    22.3    22.2    22.1    22.0
 1993 241    77    22.7    22.7    22.7    22.7    22.6    22.5    22.5    22.4    22.3    22.2    22.1
 1993 242    78    22.7    22.6    22.6    22.6    22.6    22.5    22.4    22.4    22.3    22.2    22.1
 1993 243    79    23.0    23.0    22.9    22.9    22.9    22.8    22.7    22.6    22.5    22.4    22.3
 1993 244    80    23.7    23.6    23.6    23.5    23.5    23.4    23.2    23.1    23.0    22.9    22.7
 1993 245    81    23.7    23.7    23.6    23.6    23.5    23.4    23.3    23.1    23.0    22.9    22.7
 1993 246    82    23.1    23.1    23.1    23.1    23.0    22.9    22.8    22.7    22.7    22.5    22.4
 1993 247    83    23.0    23.0    23.0    23.0    22.9    22.8    22.8    22.7    22.6    22.5    22.4
 1993 248    84    22.8    22.8    22.8    22.7    22.7    22.6    22.6    22.5    22.4    22.3    22.2
 1993 249    85    22.7    22.7    22.7    22.6    22.6    22.6    22.5    22.4    22.4    22.3    22.2
 1993 250    86    23.3    23.3    23.3    23.2    23.2    23.1    23.0    22.9    22.8    22.7    22.5
 1993 251    87    24.1    24.1    24.0    24.0    23.9    23.8    23.6    23.5    23.4    23.2    23.0
 1993 252    88    24.2    24.1    24.1    24.0    23.9    23.8    23.7    23.5    23.4    23.2    23.1
 1993 253    89    24.9    24.9    24.8    24.7    24.6    24.5    24.3    24.1    23.9    23.8    23.5
 1993 254    90    25.3    25.3    25.2    25.1    25.0    24.8    24.6    24.4    24.2    24.0    23.8
 1993 255    91    25.4    25.4    25.3    25.2    25.0    24.8    24.7    24.5    24.3    24.1    23.8
 1993 256    92    25.6    25.5    25.4    25.3    25.2    25.0    24.8    24.6    24.4    24.2    23.9
 1993 257    93    26.0    26.0    25.9    25.8    25.6    25.4    25.2    25.0    24.7    24.5    24.2
 1993 258    94    25.9    25.9    25.8    25.6    25.5    25.3    25.1    24.9    24.7    24.4    24.2
 1993 259    95    25.8    25.8    25.7    25.6    25.5    25.2    25.0    24.8    24.6    24.4    24.1
 1993 260    96    25.9    25.9    25.7    25.6    25.5    25.3    25.1    24.9    24.7    24.4    24.2
 1993 261    97    25.7    25.7    25.6    25.5    25.3    25.1    24.9    24.7    24.5    24.3    24.0
 1993 262    98    26.0    25.9    25.8    25.7    25.6    25.4    25.2    24.9    24.7    24.5    24.2
 1993 263    99    26.4    26.3    26.2    26.1    25.9    25.7    25.5    25.3    25.0    24.8    24.5
 1993 264   100    26.6    26.5    26.4    26.3    26.1    25.9    25.6    25.4    25.1    24.9    24.6
 1993 265   101    27.0    26.9    26.8    26.6    26.5    26.2    25.9    25.7    25.4    25.1    24.8
 1993 266   102    26.6    26.5    26.4    26.3    26.1    25.9    25.6    25.4    25.2    24.9    24.6
 1993 267   103    25.4    25.3    25.2    25.2    25.0    24.9    24.7    24.5    24.3    24.1    23.9
 1993 268   104    25.3    25.3    25.2    25.1    25.0    24.8    24.7    24.5    24.3    24.1    23.9
 1993 269   105    25.2    25.1    25.1    25.0    24.9    24.7    24.5    24.4    24.2    24.0    23.8
 1993 270   106    24.5    24.5    24.4    24.3    24.2    24.1    24.0    23.8    23.7    23.5    23.4
 1993 271   107    25.0    24.9    24.8    24.8    24.7    24.5    24.4    24.2    24.1    23.9    23.7
 1993 272   108    25.7    25.7    25.6    25.5    25.3    25.1    25.0    24.8    24.6    24.3    24.1
 1993 273   109    24.8    24.7    24.7    24.6    24.5    24.4    24.2    24.1    23.9    23.8    23.6
 1993 274   110    24.7    24.7    24.6    24.6    24.5    24.3    24.2    24.0    23.9    23.7    23.5
 1993 275   111    25.2    25.1    25.0    25.0    24.9    24.7    24.5    24.4    24.2    24.0    23.8
 1993 276   112    25.4    25.3    25.3    25.2    25.1    24.9    24.7    24.5    24.3    24.1    23.9
 1993 277   113    25.6    25.5    25.4    25.3    25.2    25.0    24.9    24.7    24.5    24.3    24.0
 1993 278   114    26.5    26.5    26.3    26.2    26.1    25.8    25.6    25.4    25.2    24.9    24.6
 1993 279   115    26.3    26.3    26.1    26.0    25.9    25.7    25.4    25.2    25.0    24.8    24.5
 1993 280   116    26.6    26.6    26.4    26.3    26.1    25.9    25.7    25.4    25.2    24.9    24.7
 1993 281   117    27.2    27.2    27.0    26.9    26.7    26.4    26.2    25.9    25.6    25.4    25.0
 1993 282   118    27.5    27.4    27.3    27.1    26.9    26.7    26.4    26.1    25.8    25.5    25.2
 1993 283   119    27.7    27.6    27.5    27.3    27.1    26.8    26.5    26.2    25.9    25.6    25.3
 1993 284   120    28.3    28.3    28.1    27.9    27.7    27.3    27.0    26.7    26.4    26.0    25.6
 1993 285   121    28.2    28.1    28.0    27.8    27.6    27.2    26.9    26.6    26.3    25.9    25.5
 1993 286   122    27.9    27.8    27.7    27.5    27.3    27.0    26.6    26.3    26.0    25.7    25.3
 1993 287   123    27.6    27.6    27.4    27.3    27.1    26.8    26.5    26.2    25.9    25.5    25.2
 1993 288   124    27.4    27.4    27.2    27.1    26.9    26.6    26.3    26.0    25.7    25.4    25.0
 1993 289   125    27.3    27.3    27.1    27.0    26.8    26.5    26.2    25.9    25.6    25.3    25.0
 1993 290   126    27.3    27.3    27.1    27.0    26.8    26.5    26.2    25.9    25.6    25.3    25.0
 1993 291   127    27.5    27.4    27.2    27.1    26.9    26.6    26.3    26.0    25.7    25.4    25.0
 1993 292   128    27.3    27.3    27.1    26.9    26.7    26.5    26.2    25.9    25.6    25.3    25.0
 1993 293   129    26.8    26.8    26.7    26.5    26.3    26.1    25.8    25.5    25.3    25.0    24.7
 1993 294   130    25.9    25.9    25.8    25.7    25.5    25.3    25.1    24.9    24.7    24.4    24.2
 1993 295   131    25.5    25.5    25.4    25.3    25.2    25.0    24.8    24.6    24.4    24.2    24.0
 1993 296   132    25.4    25.3    25.2    25.2    25.0    24.8    24.7    24.5    24.3    24.1    23.9
 1993 297   133    25.1    25.1    25.0    24.9    24.8    24.6    24.4    24.3    24.1    23.9    23.7
 1993 298   134    24.8    24.8    24.7    24.6    24.5    24.4    24.2    24.1    23.9    23.7    23.5
 1993 299   135    24.7    24.6    24.6    24.5    24.4    24.3    24.1    24.0    23.9    23.7    23.5
 1993 300   136    24.5    24.4    24.4    24.3    24.2    24.1    24.0    23.8    23.7    23.5    23.4
 1993 301   137    24.0    23.9    23.9    23.8    23.8    23.7    23.6    23.5    23.4    23.2    23.1

*DSSAT Cropping System Model Ver. 4.7.5.008 -release  JAN 15, 2021 21:49:57

*RUN   4        : ERiMA DCC1                MZCER047 ETMZpolo    1
 MODEL          : MZCER047 - Maize
 EXPERIMENT     : ETMZpolo SN MELKSSAL
 DATA PATH      : C:\Users\kpodo\Documents\GitHub\ET_DSS_hist_Eunjin\TEST\
 TREATMENT  1   : ERiMA DCC1                MZCER047
  
! TAV  =    20.5
! TAMP =     4.1
!               Temperature (oC) by soil depth (cm):
!               Surface     0-5    5-15   15-20   20-35   35-50   50-65   65-81   81-97  97-118 118-200
@YEAR DOY   DAS    TS0D    TS1D    TS2D    TS3D    TS4D    TS5D    TS6D    TS7D    TS8D    TS9D    TS10
 1994 165     1    28.5    28.4    28.1    27.9    27.5    27.1    26.6    26.2    25.7    25.3    24.8
 1994 166     2    28.7    28.6    28.3    28.1    27.7    27.2    26.8    26.3    25.9    25.4    24.9
 1994 167     3    28.0    27.9    27.6    27.4    27.1    26.6    26.2    25.8    25.4    25.0    24.5
 1994 168     4    27.8    27.8    27.5    27.3    27.0    26.5    26.1    25.7    25.3    24.9    24.4
 1994 169     5    27.6    27.6    27.3    27.1    26.8    26.3    25.9    25.5    25.2    24.7    24.3
 1994 170     6    27.7    27.6    27.4    27.2    26.9    26.4    26.0    25.6    25.2    24.8    24.4
 1994 171     7    27.8    27.7    27.5    27.2    26.9    26.5    26.1    25.7    25.3    24.9    24.4
 1994 172     8    28.8    28.7    28.4    28.1    27.8    27.3    26.9    26.4    26.0    25.5    25.0
 1994 173     9    29.3    29.2    28.9    28.6    28.3    27.8    27.3    26.8    26.4    25.9    25.3
 1994 174    10    30.0    29.9    29.6    29.3    28.9    28.4    27.9    27.4    26.9    26.3    25.8
 1994 175    11    29.4    29.3    29.1    28.8    28.4    27.9    27.4    26.9    26.5    26.0    25.4
 1994 176    12    28.8    28.7    28.4    28.2    27.8    27.3    26.9    26.4    26.0    25.5    25.1
 1994 177    13    28.0    28.0    27.7    27.5    27.2    26.7    26.3    25.9    25.5    25.1    24.6
 1994 178    14    27.6    27.5    27.3    27.1    26.8    26.4    26.0    25.6    25.2    24.8    24.4
 1994 179    15    27.4    27.3    27.1    26.8    26.6    26.1    25.8    25.4    25.0    24.6    24.2
 1994 180    16    26.8    26.7    26.5    26.3    26.1    25.7    25.3    25.0    24.7    24.3    23.9
 1994 181    17    26.3    26.2    26.0    25.8    25.6    25.3    24.9    24.6    24.3    24.0    23.6
 1994 182    18    26.3    26.3    26.1    25.9    25.7    25.3    25.0    24.7    24.3    24.0    23.6
 1994 183    19    26.0    26.0    25.8    25.6    25.4    25.1    24.7    24.4    24.1    23.8    23.5
 1994 184    20    25.5    25.5    25.3    25.1    24.9    24.6    24.3    24.1    23.8    23.5    23.2
 1994 185    21    25.6    25.6    25.4    25.2    25.0    24.7    24.4    24.1    23.9    23.6    23.2
 1994 186    22    25.6    25.6    25.4    25.3    25.0    24.7    24.5    24.2    23.9    23.6    23.3
 1994 187    23    25.2    25.1    25.0    24.8    24.7    24.4    24.1    23.8    23.6    23.3    23.0
 1994 188    24    25.2    25.2    25.0    24.9    24.7    24.4    24.1    23.9    23.6    23.3    23.0
 1994 189    25    24.8    24.8    24.7    24.5    24.3    24.1    23.8    23.6    23.4    23.1    22.8
 1994 190    26    24.4    24.4    24.3    24.1    24.0    23.7    23.5    23.3    23.1    22.8    22.6
 1994 191    27    24.5    24.5    24.4    24.3    24.1    23.8    23.6    23.4    23.2    22.9    22.7
 1994 192    28    24.6    24.6    24.4    24.3    24.1    23.9    23.7    23.5    23.2    23.0    22.7
 1994 193    29    24.2    24.1    24.0    23.9    23.7    23.5    23.3    23.1    22.9    22.7    22.5
 1994 194    30    24.0    24.0    23.8    23.7    23.6    23.4    23.2    23.0    22.8    22.6    22.4
 1994 195    31    24.4    24.3    24.2    24.1    23.9    23.7    23.5    23.3    23.1    22.9    22.6
 1994 196    32    24.6    24.6    24.5    24.4    24.2    24.0    23.7    23.5    23.3    23.0    22.8
 1994 197    33    24.6    24.6    24.5    24.3    24.2    23.9    23.7    23.5    23.3    23.0    22.8
 1994 198    34    24.5    24.5    24.4    24.3    24.1    23.9    23.7    23.4    23.2    23.0    22.7
 1994 199    35    24.3    24.2    24.1    24.0    23.9    23.7    23.5    23.3    23.1    22.8    22.6
 1994 200    36    24.1    24.0    23.9    23.8    23.7    23.5    23.3    23.1    22.9    22.7    22.5
 1994 201    37    24.1    24.0    23.9    23.8    23.7    23.5    23.3    23.1    22.9    22.7    22.5
 1994 202    38    23.9    23.8    23.7    23.7    23.5    23.3    23.2    23.0    22.8    22.6    22.4
 1994 203    39    23.7    23.7    23.6    23.5    23.4    23.2    23.1    22.9    22.7    22.5    22.3
 1994 204    40    23.5    23.5    23.4    23.3    23.2    23.0    22.9    22.7    22.6    22.4    22.2
 1994 205    41    23.5    23.5    23.4    23.3    23.2    23.0    22.9    22.7    22.6    22.4    22.2
 1994 206    42    23.4    23.4    23.3    23.2    23.1    22.9    22.8    22.6    22.5    22.3    22.1
 1994 207    43    23.2    23.2    23.1    23.1    23.0    22.8    22.7    22.5    22.4    22.2    22.1
 1994 208    44    23.3    23.2    23.2    23.1    23.0    22.9    22.7    22.6    22.4    22.3    22.1
 1994 209    45    23.4    23.4    23.3    23.3    23.2    23.0    22.9    22.7    22.6    22.4    22.2
 1994 210    46    23.5    23.5    23.4    23.3    23.2    23.0    22.9    22.8    22.6    22.4    22.2
 1994 211    47    22.9    22.9    22.9    22.8    22.7    22.6    22.5    22.4    22.2    22.1    21.9
 1994 212    48    22.6    22.6    22.6    22.5    22.4    22.3    22.2    22.1    22.0    21.9    21.7
 1994 213    49    22.4    22.4    22.4    22.3    22.2    22.2    22.1    22.0    21.9    21.8    21.6
 1994 214    50    22.3    22.3    22.3    22.2    22.2    22.1    22.0    21.9    21.8    21.7    21.6
 1994 215    51    22.0    22.0    21.9    21.9    21.9    21.8    21.7    21.7    21.6    21.5    21.4
 1994 216    52    22.1    22.1    22.0    22.0    22.0    21.9    21.8    21.7    21.7    21.6    21.5
 1994 217    53    22.7    22.7    22.6    22.6    22.5    22.4    22.3    22.2    22.1    22.0    21.8
 1994 218    54    23.0    23.0    22.9    22.9    22.8    22.7    22.6    22.5    22.3    22.2    22.0
 1994 219    55    23.1    23.1    23.1    23.0    22.9    22.8    22.7    22.6    22.4    22.3    22.1
 1994 220    56    23.7    23.6    23.6    23.5    23.4    23.2    23.1    22.9    22.8    22.6    22.4
 1994 221    57    24.2    24.2    24.1    24.0    23.9    23.7    23.5    23.3    23.2    23.0    22.8
 1994 222    58    24.2    24.2    24.1    24.0    23.9    23.7    23.5    23.4    23.2    23.0    22.8
 1994 223    59    23.6    23.5    23.5    23.4    23.3    23.2    23.0    22.9    22.8    22.6    22.4
 1994 224    60    23.7    23.7    23.6    23.5    23.4    23.3    23.1    23.0    22.9    22.7    22.5
 1994 225    61    23.2    23.1    23.1    23.0    23.0    22.8    22.7    22.6    22.5    22.3    22.2
 1994 226    62    22.4    22.4    22.4    22.4    22.3    22.2    22.2    22.1    22.0    21.9    21.8
 1994 227    63    22.2    22.1    22.1    22.1    22.1    22.0    21.9    21.9    21.8    21.7    21.6
 1994 228    64    23.1    23.1    23.1    23.0    22.9    22.8    22.7    22.6    22.5    22.4    22.2
 1994 229    65    23.4    23.4    23.4    23.3    23.2    23.1    23.0    22.9    22.7    22.6    22.4
 1994 230    66    23.9    23.8    23.8    23.7    23.6    23.5    23.3    23.2    23.0    22.9    22.7
 1994 231    67    24.5    24.4    24.4    24.3    24.2    24.0    23.8    23.6    23.5    23.3    23.0
 1994 232    68    24.4    24.4    24.3    24.2    24.1    23.9    23.8    23.6    23.4    23.2    23.0
 1994 233    69    24.0    24.0    23.9    23.8    23.7    23.6    23.4    23.3    23.1    23.0    22.8
 1994 234    70    23.7    23.7    23.6    23.5    23.5    23.3    23.2    23.1    22.9    22.8    22.6
 1994 235    71    23.8    23.8    23.7    23.7    23.6    23.4    23.3    23.2    23.0    22.9    22.7
 1994 236    72    23.5    23.5    23.4    23.4    23.3    23.2    23.1    22.9    22.8    22.7    22.5
 1994 237    73    23.8    23.7    23.7    23.6    23.5    23.4    23.3    23.1    23.0    22.8    22.7
 1994 238    74    23.3    23.3    23.3    23.2    23.2    23.1    23.0    22.8    22.7    22.6    22.4
 1994 239    75    23.2    23.2    23.2    23.1    23.1    23.0    22.9    22.8    22.6    22.5    22.4
 1994 240    76    22.8    22.8    22.8    22.8    22.7    22.6    22.6    22.5    22.4    22.3    22.2
 1994 241    77    22.9    22.9    22.9    22.8    22.8    22.7    22.6    22.5    22.5    22.3    22.2
 1994 242    78    22.6    22.6    22.5    22.5    22.5    22.4    22.4    22.3    22.2    22.1    22.0
 1994 243    79    23.0    23.0    23.0    22.9    22.9    22.8    22.7    22.6    22.5    22.4    22.3
 1994 244    80    23.2    23.1    23.1    23.1    23.0    22.9    22.8    22.7    22.6    22.5    22.4
 1994 245    81    23.2    23.2    23.2    23.1    23.1    23.0    22.9    22.8    22.7    22.6    22.4
 1994 246    82    23.0    23.0    23.0    23.0    22.9    22.8    22.8    22.7    22.6    22.5    22.3
 1994 247    83    23.1    23.1    23.1    23.0    23.0    22.9    22.8    22.7    22.7    22.5    22.4
 1994 248    84    22.8    22.8    22.8    22.8    22.7    22.7    22.6    22.5    22.5    22.4    22.2
 1994 249    85    22.8    22.8    22.8    22.8    22.7    22.7    22.6    22.5    22.5    22.4    22.2
 1994 250    86    22.8    22.8    22.7    22.7    22.7    22.6    22.6    22.5    22.4    22.3    22.2
 1994 251    87    23.2    23.2    23.2    23.1    23.1    23.0    22.9    22.8    22.7    22.6    22.5
 1994 252    88    23.8    23.8    23.7    23.7    23.6    23.5    23.4    23.3    23.1    23.0    22.8
 1994 253    89    24.3    24.3    24.2    24.1    24.0    23.9    23.8    23.6    23.5    23.3    23.1
 1994 254    90    24.7    24.6    24.6    24.5    24.4    24.2    24.1    23.9    23.8    23.6    23.4
 1994 255    91    25.2    25.2    25.1    25.0    24.8    24.7    24.5    24.3    24.1    23.9    23.7
 1994 256    92    25.2    25.1    25.0    24.9    24.8    24.6    24.5    24.3    24.1    23.9    23.7
 1994 257    93    25.4    25.4    25.3    25.2    25.0    24.8    24.7    24.5    24.3    24.0    23.8
 1994 258    94    25.3    25.3    25.2    25.1    25.0    24.8    24.6    24.4    24.2    24.0    23.8
 1994 259    95    25.2    25.2    25.1    25.0    24.9    24.7    24.5    24.4    24.2    24.0    23.7
 1994 260    96    25.0    25.0    24.9    24.8    24.7    24.5    24.4    24.2    24.0    23.8    23.6
 1994 261    97    25.2    25.2    25.1    25.0    24.9    24.7    24.5    24.3    24.1    23.9    23.7
 1994 262    98    24.9    24.8    24.8    24.7    24.6    24.4    24.2    24.1    23.9    23.7    23.5
 1994 263    99    25.0    25.0    24.9    24.8    24.7    24.5    24.4    24.2    24.0    23.8    23.6
 1994 264   100    24.7    24.7    24.6    24.5    24.4    24.3    24.1    24.0    23.8    23.6    23.4
 1994 265   101    24.6    24.6    24.5    24.5    24.4    24.2    24.1    23.9    23.8    23.6    23.4
 1994 266   102    24.5    24.5    24.5    24.4    24.3    24.2    24.0    23.9    23.7    23.6    23.4
 1994 267   103    24.4    24.4    24.3    24.2    24.1    24.0    23.9    23.7    23.6    23.5    23.3
 1994 268   104    23.7    23.7    23.7    23.6    23.6    23.5    23.4    23.3    23.2    23.0    22.9
 1994 269   105    24.0    24.0    24.0    23.9    23.8    23.7    23.6    23.5    23.4    23.2    23.1
 1994 270   106    24.3    24.3    24.2    24.2    24.1    23.9    23.8    23.7    23.6    23.4    23.2
 1994 271   107    23.9    23.9    23.8    23.8    23.7    23.6    23.5    23.4    23.3    23.1    23.0
 1994 272   108    23.7    23.7    23.6    23.6    23.5    23.4    23.4    23.3    23.1    23.0    22.9
 1994 273   109    24.1    24.1    24.0    24.0    23.9    23.8    23.7    23.5    23.4    23.3    23.1
 1994 274   110    24.1    24.1    24.0    23.9    23.9    23.8    23.6    23.5    23.4    23.3    23.1
 1994 275   111    24.2    24.1    24.1    24.0    24.0    23.8    23.7    23.6    23.5    23.3    23.1
 1994 276   112    24.6    24.6    24.5    24.5    24.4    24.2    24.1    23.9    23.8    23.6    23.4
 1994 277   113    25.0    25.0    24.9    24.8    24.7    24.5    24.4    24.2    24.0    23.8    23.6
 1994 278   114    25.2    25.1    25.1    25.0    24.8    24.7    24.5    24.3    24.1    23.9    23.7
 1994 279   115    25.0    25.0    24.9    24.8    24.7    24.6    24.4    24.2    24.0    23.9    23.6
 1994 280   116    25.0    25.0    24.9    24.8    24.7    24.5    24.4    24.2    24.0    23.8    23.6
 1994 281   117    25.2    25.2    25.1    25.0    24.9    24.7    24.5    24.3    24.2    24.0    23.7
 1994 282   118    25.7    25.6    25.5    25.4    25.3    25.1    24.9    24.7    24.5    24.2    24.0
 1994 283   119    25.9    25.9    25.8    25.6    25.5    25.3    25.1    24.9    24.6    24.4    24.1
 1994 284   120    26.3    26.3    26.1    26.0    25.8    25.6    25.4    25.1    24.9    24.6    24.3
 1994 285   121    25.8    25.8    25.7    25.6    25.4    25.2    25.0    24.8    24.6    24.4    24.1
 1994 286   122    25.6    25.5    25.4    25.3    25.2    25.0    24.8    24.6    24.4    24.2    23.9
 1994 287   123    25.0    25.0    24.9    24.8    24.7    24.6    24.4    24.2    24.1    23.9    23.6
 1994 288   124    24.9    24.9    24.8    24.7    24.6    24.5    24.3    24.2    24.0    23.8    23.6
 1994 289   125    24.5    24.5    24.4    24.4    24.3    24.2    24.0    23.9    23.7    23.6    23.4
 1994 290   126    24.6    24.6    24.5    24.4    24.3    24.2    24.1    23.9    23.8    23.6    23.4
 1994 291   127    24.3    24.3    24.2    24.1    24.1    23.9    23.8    23.7    23.6    23.4    23.2
 1994 292   128    24.7    24.6    24.6    24.5    24.4    24.3    24.1    24.0    23.8    23.7    23.5
 1994 293   129    24.9    24.9    24.8    24.7    24.6    24.5    24.3    24.1    24.0    23.8    23.6
 1994 294   130    25.6    25.6    25.5    25.4    25.2    25.0    24.8    24.6    24.4    24.2    24.0
 1994 295   131    26.3    26.2    26.1    26.0    25.8    25.6    25.4    25.1    24.9    24.6    24.4
 1994 296   132    26.7    26.7    26.5    26.4    26.2    26.0    25.7    25.5    25.2    24.9    24.6
 1994 297   133    26.7    26.7    26.5    26.4    26.2    26.0    25.7    25.5    25.2    24.9    24.6
 1994 298   134    26.6    26.6    26.4    26.3    26.1    25.9    25.6    25.4    25.1    24.9    24.6
 1994 299   135    26.4    26.3    26.2    26.1    25.9    25.7    25.4    25.2    25.0    24.7    24.4

*DSSAT Cropping System Model Ver. 4.7.5.008 -release  JAN 15, 2021 21:49:57

*RUN   5        : ERiMA DCC1                MZCER047 ETMZpolo    1
 MODEL          : MZCER047 - Maize
 EXPERIMENT     : ETMZpolo SN MELKSSAL
 DATA PATH      : C:\Users\kpodo\Documents\GitHub\ET_DSS_hist_Eunjin\TEST\
 TREATMENT  1   : ERiMA DCC1                MZCER047
  
! TAV  =    20.5
! TAMP =     4.1
!               Temperature (oC) by soil depth (cm):
!               Surface     0-5    5-15   15-20   20-35   35-50   50-65   65-81   81-97  97-118 118-200
@YEAR DOY   DAS    TS0D    TS1D    TS2D    TS3D    TS4D    TS5D    TS6D    TS7D    TS8D    TS9D    TS10
 1995 165     1    29.4    29.3    29.0    28.7    28.3    27.8    27.3    26.8    26.4    25.9    25.3
 1995 166     2    29.6    29.5    29.2    28.9    28.5    28.0    27.5    27.0    26.5    26.0    25.4
 1995 167     3    29.3    29.2    28.9    28.6    28.3    27.7    27.2    26.8    26.3    25.8    25.3
 1995 168     4    29.1    29.0    28.7    28.4    28.1    27.6    27.1    26.6    26.2    25.7    25.2
 1995 169     5    28.9    28.8    28.6    28.3    27.9    27.4    27.0    26.5    26.1    25.6    25.1
 1995 170     6    28.9    28.8    28.5    28.2    27.9    27.4    26.9    26.5    26.0    25.6    25.1
 1995 171     7    28.5    28.4    28.2    27.9    27.6    27.1    26.7    26.2    25.8    25.3    24.9
 1995 172     8    28.3    28.2    27.9    27.7    27.4    26.9    26.5    26.0    25.6    25.2    24.7
 1995 173     9    28.4    28.3    28.0    27.8    27.5    27.0    26.6    26.1    25.7    25.3    24.8
 1995 174    10    28.1    28.0    27.7    27.5    27.2    26.7    26.3    25.9    25.5    25.1    24.6
 1995 175    11    27.9    27.9    27.6    27.4    27.1    26.6    26.2    25.8    25.4    25.0    24.5
 1995 176    12    27.8    27.7    27.5    27.3    27.0    26.5    26.1    25.7    25.3    24.9    24.5
 1995 177    13    28.0    27.9    27.6    27.4    27.1    26.7    26.3    25.8    25.5    25.0    24.6
 1995 178    14    27.3    27.2    27.0    26.8    26.5    26.1    25.7    25.4    25.0    24.6    24.2
 1995 179    15    27.4    27.3    27.1    26.9    26.6    26.2    25.8    25.4    25.1    24.7    24.3
 1995 180    16    27.2    27.1    26.9    26.7    26.4    26.0    25.7    25.3    24.9    24.6    24.2
 1995 181    17    27.2    27.1    26.9    26.7    26.4    26.0    25.7    25.3    24.9    24.6    24.1
 1995 182    18    27.3    27.2    27.0    26.8    26.5    26.1    25.8    25.4    25.0    24.6    24.2
 1995 183    19    27.6    27.5    27.3    27.1    26.8    26.4    26.0    25.6    25.2    24.8    24.4
 1995 184    20    27.0    26.9    26.7    26.5    26.2    25.9    25.5    25.2    24.8    24.4    24.0
 1995 185    21    27.2    27.1    26.9    26.7    26.4    26.0    25.7    25.3    25.0    24.6    24.2
 1995 186    22    27.1    27.1    26.9    26.7    26.4    26.0    25.6    25.3    24.9    24.6    24.1
 1995 187    23    26.6    26.5    26.3    26.2    25.9    25.6    25.2    24.9    24.6    24.2    23.8
 1995 188    24    26.1    26.1    25.9    25.7    25.5    25.2    24.8    24.5    24.2    23.9    23.6
 1995 189    25    26.5    26.4    26.2    26.1    25.8    25.5    25.1    24.8    24.5    24.2    23.8
 1995 190    26    25.5    25.4    25.2    25.1    24.9    24.6    24.3    24.0    23.8    23.5    23.2
 1995 191    27    25.0    24.9    24.8    24.6    24.5    24.2    23.9    23.7    23.5    23.2    22.9
 1995 192    28    24.6    24.6    24.4    24.3    24.1    23.9    23.7    23.4    23.2    23.0    22.7
 1995 193    29    25.1    25.0    24.9    24.8    24.6    24.3    24.1    23.8    23.6    23.3    23.0
 1995 194    30    24.9    24.9    24.8    24.6    24.5    24.2    24.0    23.7    23.5    23.2    23.0
 1995 195    31    25.0    24.9    24.8    24.7    24.5    24.2    24.0    23.8    23.5    23.3    23.0
 1995 196    32    24.6    24.5    24.4    24.3    24.1    23.9    23.7    23.4    23.2    23.0    22.7
 1995 197    33    25.1    25.1    24.9    24.8    24.6    24.4    24.1    23.9    23.6    23.4    23.1
 1995 198    34    25.0    25.0    24.9    24.7    24.5    24.3    24.1    23.8    23.6    23.3    23.0
 1995 199    35    24.5    24.5    24.3    24.2    24.1    23.8    23.6    23.4    23.2    23.0    22.7
 1995 200    36    24.2    24.1    24.0    23.9    23.8    23.6    23.4    23.2    23.0    22.8    22.5
 1995 201    37    23.9    23.8    23.7    23.6    23.5    23.3    23.1    22.9    22.8    22.6    22.4
 1995 202    38    23.6    23.6    23.5    23.4    23.3    23.1    22.9    22.8    22.6    22.4    22.2
 1995 203    39    22.9    22.8    22.8    22.7    22.6    22.5    22.4    22.2    22.1    21.9    21.8
 1995 204    40    23.0    23.0    22.9    22.8    22.7    22.6    22.5    22.3    22.2    22.0    21.9
 1995 205    41    22.5    22.5    22.5    22.4    22.3    22.2    22.1    22.0    21.9    21.8    21.6
 1995 206    42    22.8    22.7    22.7    22.6    22.5    22.4    22.3    22.2    22.1    21.9    21.8
 1995 207    43    22.0    22.0    22.0    22.0    21.9    21.8    21.7    21.6    21.6    21.5    21.3
 1995 208    44    22.0    22.0    22.0    21.9    21.9    21.8    21.7    21.6    21.5    21.4    21.3
 1995 209    45    22.1    22.1    22.0    22.0    21.9    21.8    21.8    21.7    21.6    21.5    21.4
 1995 210    46    22.9    22.9    22.8    22.8    22.7    22.6    22.4    22.3    22.2    22.0    21.9
 1995 211    47    22.5    22.5    22.5    22.4    22.4    22.3    22.2    22.0    21.9    21.8    21.7
 1995 212    48    23.0    22.9    22.9    22.8    22.7    22.6    22.5    22.4    22.2    22.1    21.9
 1995 213    49    23.3    23.3    23.2    23.1    23.0    22.9    22.8    22.6    22.5    22.3    22.1
 1995 214    50    23.0    22.9    22.9    22.8    22.7    22.6    22.5    22.4    22.3    22.1    22.0
 1995 215    51    22.9    22.9    22.8    22.8    22.7    22.6    22.5    22.4    22.2    22.1    22.0
 1995 216    52    23.7    23.7    23.6    23.6    23.4    23.3    23.1    23.0    22.8    22.6    22.5
 1995 217    53    23.8    23.7    23.7    23.6    23.5    23.3    23.2    23.0    22.9    22.7    22.5
 1995 218    54    23.8    23.7    23.7    23.6    23.5    23.3    23.2    23.0    22.9    22.7    22.5
 1995 219    55    24.1    24.1    24.0    23.9    23.8    23.6    23.5    23.3    23.1    22.9    22.7
 1995 220    56    24.1    24.1    24.0    23.9    23.8    23.7    23.5    23.3    23.1    23.0    22.7
 1995 221    57    24.3    24.3    24.2    24.1    24.0    23.8    23.6    23.4    23.3    23.1    22.8
 1995 222    58    24.8    24.7    24.6    24.5    24.4    24.2    24.0    23.8    23.6    23.4    23.1
 1995 223    59    24.4    24.3    24.3    24.2    24.0    23.9    23.7    23.5    23.3    23.1    22.9
 1995 224    60    24.1    24.1    24.0    24.0    23.8    23.7    23.5    23.4    23.2    23.0    22.8
 1995 225    61    24.3    24.3    24.2    24.1    24.0    23.8    23.6    23.5    23.3    23.1    22.9
 1995 226    62    24.0    24.0    23.9    23.8    23.7    23.5    23.4    23.2    23.1    22.9    22.7
 1995 227    63    23.5    23.5    23.4    23.3    23.2    23.1    23.0    22.9    22.7    22.6    22.4
 1995 228    64    24.0    24.0    23.9    23.8    23.7    23.6    23.4    23.3    23.1    22.9    22.7
 1995 229    65    24.3    24.3    24.2    24.1    24.0    23.8    23.6    23.5    23.3    23.1    22.9
 1995 230    66    24.4    24.3    24.2    24.2    24.1    23.9    23.7    23.5    23.4    23.2    23.0
 1995 231    67    24.3    24.2    24.1    24.1    24.0    23.8    23.6    23.5    23.3    23.1    22.9
 1995 232    68    24.4    24.4    24.3    24.2    24.1    23.9    23.8    23.6    23.4    23.2    23.0
 1995 233    69    24.2    24.2    24.1    24.0    23.9    23.8    23.6    23.4    23.3    23.1    22.9
 1995 234    70    23.6    23.6    23.6    23.5    23.4    23.3    23.2    23.0    22.9    22.8    22.6
 1995 235    71    23.4    23.4    23.3    23.3    23.2    23.1    23.0    22.9    22.8    22.6    22.5
 1995 236    72    23.6    23.6    23.5    23.4    23.4    23.2    23.1    23.0    22.9    22.7    22.6
 1995 237    73    23.5    23.5    23.4    23.4    23.3    23.2    23.1    22.9    22.8    22.7    22.5
 1995 238    74    23.7    23.6    23.6    23.5    23.4    23.3    23.2    23.1    23.0    22.8    22.6
 1995 239    75    24.5    24.5    24.4    24.3    24.2    24.0    23.9    23.7    23.6    23.4    23.2
 1995 240    76    24.8    24.7    24.7    24.6    24.5    24.3    24.1    23.9    23.7    23.5    23.3
 1995 241    77    24.9    24.8    24.7    24.7    24.5    24.4    24.2    24.0    23.8    23.6    23.4
 1995 242    78    24.9    24.9    24.8    24.7    24.6    24.4    24.2    24.1    23.9    23.7    23.4
 1995 243    79    25.3    25.2    25.1    25.0    24.9    24.7    24.5    24.3    24.1    23.9    23.6
 1995 244    80    24.9    24.8    24.7    24.7    24.5    24.4    24.2    24.0    23.8    23.6    23.4
 1995 245    81    24.2    24.2    24.1    24.0    23.9    23.8    23.7    23.5    23.4    23.2    23.0
 1995 246    82    23.9    23.9    23.9    23.8    23.7    23.6    23.5    23.3    23.2    23.1    22.9
 1995 247    83    23.5    23.5    23.4    23.4    23.3    23.2    23.1    23.0    22.9    22.8    22.6
 1995 248    84    22.7    22.7    22.7    22.6    22.6    22.5    22.5    22.4    22.3    22.3    22.1
 1995 249    85    22.6    22.6    22.5    22.5    22.5    22.4    22.4    22.3    22.3    22.2    22.1
 1995 250    86    22.6    22.6    22.6    22.6    22.5    22.5    22.4    22.4    22.3    22.2    22.1
 1995 251    87    23.0    23.0    22.9    22.9    22.9    22.8    22.7    22.7    22.6    22.5    22.3
 1995 252    88    23.4    23.4    23.4    23.3    23.3    23.2    23.1    23.0    22.9    22.8    22.6
 1995 253    89    24.2    24.2    24.1    24.0    23.9    23.8    23.7    23.6    23.4    23.3    23.1
 1995 254    90    24.8    24.8    24.7    24.6    24.5    24.4    24.2    24.1    23.9    23.7    23.5
 1995 255    91    25.7    25.7    25.6    25.5    25.4    25.1    24.9    24.7    24.5    24.3    24.0
 1995 256    92    25.9    25.9    25.8    25.7    25.5    25.3    25.1    24.9    24.7    24.4    24.2
 1995 257    93    26.4    26.3    26.2    26.1    25.9    25.7    25.4    25.2    25.0    24.7    24.4
 1995 258    94    26.4    26.4    26.2    26.1    25.9    25.7    25.5    25.2    25.0    24.7    24.4
 1995 259    95    26.4    26.4    26.2    26.1    26.0    25.7    25.5    25.2    25.0    24.7    24.4
 1995 260    96    26.5    26.4    26.3    26.2    26.0    25.8    25.5    25.3    25.1    24.8    24.5
 1995 261    97    26.5    26.5    26.3    26.2    26.0    25.8    25.6    25.3    25.1    24.8    24.5
 1995 262    98    26.7    26.6    26.5    26.4    26.2    25.9    25.7    25.5    25.2    24.9    24.6
 1995 263    99    26.7    26.7    26.5    26.4    26.2    26.0    25.7    25.5    25.3    25.0    24.7
 1995 264   100    26.9    26.9    26.7    26.6    26.4    26.2    25.9    25.7    25.4    25.1    24.8
 1995 265   101    26.9    26.9    26.8    26.6    26.5    26.2    25.9    25.7    25.4    25.1    24.8
 1995 266   102    26.8    26.8    26.7    26.5    26.4    26.1    25.8    25.6    25.3    25.1    24.7
 1995 267   103    26.2    26.2    26.1    26.0    25.8    25.6    25.4    25.2    24.9    24.7    24.4
 1995 268   104    26.3    26.2    26.1    26.0    25.9    25.6    25.4    25.2    25.0    24.7    24.4
 1995 269   105    26.2    26.2    26.1    26.0    25.8    25.6    25.4    25.2    24.9    24.7    24.4
 1995 270   106    26.6    26.5    26.4    26.3    26.1    25.9    25.6    25.4    25.1    24.9    24.6
 1995 271   107    27.1    27.1    26.9    26.8    26.6    26.3    26.1    25.8    25.5    25.2    24.9
 1995 272   108    27.9    27.9    27.7    27.5    27.3    27.0    26.7    26.4    26.1    25.7    25.4
 1995 273   109    27.9    27.8    27.7    27.5    27.3    27.0    26.7    26.4    26.1    25.7    25.3
 1995 274   110    27.8    27.7    27.6    27.4    27.2    26.9    26.6    26.3    26.0    25.6    25.3
 1995 275   111    27.6    27.5    27.3    27.2    27.0    26.7    26.4    26.1    25.8    25.5    25.1
 1995 276   112    27.6    27.5    27.4    27.2    27.0    26.7    26.4    26.1    25.8    25.5    25.1
 1995 277   113    27.5    27.4    27.3    27.1    26.9    26.6    26.3    26.0    25.7    25.4    25.1
 1995 278   114    27.1    27.1    26.9    26.8    26.6    26.3    26.0    25.8    25.5    25.2    24.8
 1995 279   115    27.2    27.1    27.0    26.8    26.6    26.3    26.1    25.8    25.5    25.2    24.8
 1995 280   116    26.9    26.9    26.7    26.6    26.4    26.1    25.9    25.6    25.3    25.0    24.7
 1995 281   117    26.7    26.7    26.5    26.4    26.2    25.9    25.7    25.4    25.2    24.9    24.6
 1995 282   118    26.8    26.7    26.6    26.5    26.3    26.0    25.8    25.5    25.2    24.9    24.6
 1995 283   119    27.2    27.1    27.0    26.8    26.6    26.3    26.1    25.8    25.5    25.2    24.8
 1995 284   120    27.3    27.2    27.1    26.9    26.7    26.4    26.1    25.8    25.6    25.2    24.9
 1995 285   121    27.0    27.0    26.8    26.7    26.5    26.2    26.0    25.7    25.4    25.1    24.8
 1995 286   122    26.7    26.7    26.5    26.4    26.2    25.9    25.7    25.4    25.2    24.9    24.6
 1995 287   123    26.9    26.8    26.7    26.5    26.3    26.1    25.8    25.5    25.3    25.0    24.7
 1995 288   124    27.2    27.1    27.0    26.8    26.6    26.4    26.1    25.8    25.5    25.2    24.9
 1995 289   125    27.4    27.4    27.2    27.1    26.9    26.6    26.3    26.0    25.7    25.4    25.0
 1995 290   126    27.9    27.8    27.6    27.5    27.2    26.9    26.6    26.3    26.0    25.7    25.3
 1995 291   127    28.3    28.2    28.0    27.8    27.6    27.2    26.9    26.6    26.2    25.9    25.5
 1995 292   128    27.6    27.6    27.4    27.2    27.0    26.7    26.4    26.1    25.8    25.5    25.1
 1995 293   129    27.6    27.5    27.4    27.2    27.0    26.7    26.4    26.1    25.8    25.5    25.1
 1995 294   130    26.9    26.9    26.7    26.6    26.4    26.1    25.9    25.6    25.3    25.1    24.7
 1995 295   131    26.9    26.8    26.7    26.5    26.4    26.1    25.8    25.6    25.3    25.0    24.7

*DSSAT Cropping System Model Ver. 4.7.5.008 -release  JAN 15, 2021 21:49:57

*RUN   6        : ERiMA DCC1                MZCER047 ETMZpolo    1
 MODEL          : MZCER047 - Maize
 EXPERIMENT     : ETMZpolo SN MELKSSAL
 DATA PATH      : C:\Users\kpodo\Documents\GitHub\ET_DSS_hist_Eunjin\TEST\
 TREATMENT  1   : ERiMA DCC1                MZCER047
  
! TAV  =    20.5
! TAMP =     4.1
!               Temperature (oC) by soil depth (cm):
!               Surface     0-5    5-15   15-20   20-35   35-50   50-65   65-81   81-97  97-118 118-200
@YEAR DOY   DAS    TS0D    TS1D    TS2D    TS3D    TS4D    TS5D    TS6D    TS7D    TS8D    TS9D    TS10
 1996 165     1    25.9    25.9    25.7    25.5    25.2    24.9    24.6    24.3    23.9    23.6    23.3
 1996 166     2    25.4    25.4    25.2    25.0    24.8    24.5    24.2    23.9    23.6    23.3    23.0
 1996 167     3    24.7    24.7    24.5    24.4    24.2    23.9    23.6    23.4    23.1    22.9    22.6
 1996 168     4    23.9    23.8    23.7    23.6    23.4    23.2    23.0    22.8    22.5    22.3    22.1
 1996 169     5    23.4    23.3    23.2    23.1    23.0    22.7    22.6    22.4    22.2    22.0    21.8
 1996 170     6    22.8    22.7    22.6    22.5    22.4    22.2    22.1    21.9    21.8    21.6    21.4
 1996 171     7    23.3    23.3    23.2    23.1    22.9    22.7    22.5    22.3    22.2    22.0    21.8
 1996 172     8    23.6    23.6    23.5    23.4    23.2    23.0    22.8    22.6    22.4    22.2    22.0
 1996 173     9    24.5    24.4    24.3    24.2    24.0    23.7    23.5    23.2    23.0    22.7    22.5
 1996 174    10    25.0    24.9    24.8    24.6    24.4    24.1    23.9    23.6    23.4    23.1    22.8
 1996 175    11    25.1    25.1    24.9    24.7    24.5    24.2    24.0    23.7    23.4    23.2    22.9
 1996 176    12    24.8    24.8    24.6    24.5    24.3    24.0    23.8    23.5    23.3    23.0    22.7
 1996 177    13    24.8    24.7    24.6    24.4    24.2    24.0    23.7    23.5    23.2    23.0    22.7
 1996 178    14    24.7    24.7    24.5    24.4    24.2    23.9    23.7    23.4    23.2    22.9    22.6
 1996 179    15    24.8    24.8    24.6    24.5    24.3    24.0    23.7    23.5    23.3    23.0    22.7
 1996 180    16    25.3    25.2    25.1    24.9    24.7    24.4    24.1    23.9    23.6    23.3    23.0
 1996 181    17    26.0    25.9    25.7    25.5    25.3    25.0    24.7    24.4    24.1    23.7    23.4
 1996 182    18    26.7    26.7    26.5    26.3    26.0    25.6    25.3    24.9    24.6    24.3    23.9
 1996 183    19    27.4    27.4    27.1    26.9    26.6    26.2    25.9    25.5    25.1    24.7    24.3
 1996 184    20    27.9    27.8    27.5    27.3    27.0    26.6    26.2    25.8    25.4    25.0    24.6
 1996 185    21    28.1    28.1    27.8    27.6    27.3    26.8    26.4    26.0    25.6    25.2    24.7
 1996 186    22    28.1    28.1    27.8    27.6    27.3    26.8    26.4    26.0    25.6    25.2    24.7
 1996 187    23    27.6    27.5    27.3    27.1    26.8    26.4    26.0    25.6    25.3    24.9    24.4
 1996 188    24    27.1    27.0    26.8    26.6    26.4    26.0    25.6    25.3    24.9    24.6    24.2
 1996 189    25    26.1    26.1    25.9    25.7    25.5    25.1    24.8    24.5    24.2    23.9    23.6
 1996 190    26    25.8    25.7    25.6    25.4    25.2    24.9    24.6    24.3    24.0    23.7    23.4
 1996 191    27    24.9    24.9    24.8    24.6    24.4    24.2    23.9    23.7    23.5    23.2    22.9
 1996 192    28    24.9    24.9    24.7    24.6    24.4    24.2    23.9    23.7    23.5    23.2    22.9
 1996 193    29    24.4    24.4    24.2    24.1    24.0    23.7    23.5    23.3    23.1    22.9    22.6
 1996 194    30    24.5    24.5    24.4    24.2    24.1    23.8    23.6    23.4    23.2    22.9    22.7
 1996 195    31    23.3    23.3    23.2    23.1    23.0    22.8    22.7    22.5    22.3    22.2    22.0
 1996 196    32    23.6    23.6    23.5    23.4    23.3    23.1    22.9    22.8    22.6    22.4    22.2
 1996 197    33    23.3    23.3    23.2    23.1    23.0    22.8    22.7    22.5    22.4    22.2    22.0
 1996 198    34    23.4    23.4    23.3    23.2    23.1    23.0    22.8    22.6    22.5    22.3    22.1
 1996 199    35    23.2    23.2    23.1    23.0    22.9    22.7    22.6    22.4    22.3    22.1    21.9
 1996 200    36    23.7    23.6    23.5    23.5    23.3    23.2    23.0    22.8    22.6    22.5    22.2
 1996 201    37    23.2    23.2    23.1    23.0    22.9    22.8    22.6    22.5    22.3    22.2    22.0
 1996 202    38    23.4    23.3    23.2    23.2    23.1    22.9    22.7    22.6    22.4    22.3    22.1
 1996 203    39    23.0    23.0    22.9    22.9    22.8    22.6    22.5    22.3    22.2    22.1    21.9
 1996 204    40    23.4    23.3    23.3    23.2    23.1    22.9    22.8    22.6    22.5    22.3    22.1
 1996 205    41    23.5    23.5    23.4    23.3    23.2    23.1    22.9    22.7    22.6    22.4    22.2
 1996 206    42    23.3    23.3    23.2    23.1    23.0    22.9    22.7    22.6    22.4    22.3    22.1
 1996 207    43    22.8    22.8    22.8    22.7    22.6    22.5    22.4    22.2    22.1    22.0    21.8
 1996 208    44    22.9    22.9    22.8    22.8    22.7    22.6    22.4    22.3    22.2    22.0    21.9
 1996 209    45    23.0    23.0    22.9    22.8    22.8    22.6    22.5    22.4    22.2    22.1    21.9
 1996 210    46    23.1    23.1    23.0    23.0    22.9    22.7    22.6    22.5    22.3    22.2    22.0
 1996 211    47    23.2    23.1    23.1    23.0    22.9    22.8    22.6    22.5    22.4    22.2    22.0
 1996 212    48    23.2    23.1    23.1    23.0    22.9    22.8    22.6    22.5    22.4    22.2    22.1
 1996 213    49    23.7    23.7    23.6    23.5    23.4    23.2    23.1    22.9    22.8    22.6    22.4
 1996 214    50    23.4    23.4    23.3    23.3    23.2    23.0    22.9    22.7    22.6    22.4    22.3
 1996 215    51    23.6    23.6    23.5    23.4    23.3    23.2    23.0    22.9    22.7    22.6    22.4
 1996 216    52    24.0    24.0    23.9    23.8    23.7    23.5    23.4    23.2    23.0    22.8    22.6
 1996 217    53    24.9    24.9    24.8    24.7    24.5    24.3    24.1    23.9    23.7    23.4    23.2
 1996 218    54    24.3    24.3    24.2    24.1    24.0    23.8    23.6    23.4    23.3    23.1    22.8
 1996 219    55    24.5    24.5    24.4    24.3    24.1    24.0    23.8    23.6    23.4    23.2    23.0
 1996 220    56    24.2    24.2    24.1    24.0    23.9    23.7    23.5    23.4    23.2    23.0    22.8
 1996 221    57    24.0    24.0    23.9    23.8    23.7    23.5    23.4    23.2    23.0    22.9    22.7
 1996 222    58    23.6    23.6    23.5    23.4    23.3    23.2    23.1    22.9    22.8    22.6    22.4
 1996 223    59    23.9    23.8    23.8    23.7    23.6    23.4    23.3    23.1    23.0    22.8    22.6
[...]
 2017 258    94    24.1    24.1    24.0    23.9    23.9    23.8    23.6    23.5    23.4    23.2    23.1
 2017 259    95    24.1    24.1    24.1    24.0    23.9    23.8    23.7    23.6    23.4    23.3    23.1
 2017 260    96    24.2    24.2    24.1    24.1    24.0    23.9    23.8    23.6    23.5    23.3    23.2
 2017 261    97    24.2    24.2    24.1    24.1    24.0    23.9    23.8    23.6    23.5    23.4    23.2
 2017 262    98    24.2    24.2    24.1    24.0    24.0    23.8    23.7    23.6    23.5    23.3    23.2
 2017 263    99    24.3    24.2    24.2    24.1    24.0    23.9    23.8    23.7    23.5    23.4    23.2
 2017 264   100    24.3    24.3    24.2    24.2    24.1    24.0    23.8    23.7    23.6    23.4    23.2
 2017 265   101    24.2    24.2    24.1    24.1    24.0    23.9    23.8    23.6    23.5    23.4    23.2
 2017 266   102    24.2    24.1    24.1    24.0    24.0    23.8    23.7    23.6    23.5    23.3    23.2
 2017 267   103    24.2    24.2    24.1    24.1    24.0    23.9    23.8    23.6    23.5    23.4    23.2
 2017 268   104    24.2    24.2    24.1    24.0    24.0    23.9    23.7    23.6    23.5    23.3    23.2
 2017 269   105    24.1    24.1    24.1    24.0    23.9    23.8    23.7    23.6    23.5    23.3    23.2
 2017 270   106    24.2    24.2    24.1    24.1    24.0    23.9    23.8    23.7    23.5    23.4    23.2
 2017 271   107    24.2    24.2    24.2    24.1    24.0    23.9    23.8    23.7    23.5    23.4    23.2
 2017 272   108    24.2    24.2    24.1    24.1    24.0    23.9    23.8    23.7    23.5    23.4    23.2
 2017 273   109    24.2    24.2    24.1    24.1    24.0    23.9    23.8    23.6    23.5    23.4    23.2
 2017 274   110    24.1    24.1    24.0    24.0    23.9    23.8    23.7    23.6    23.5    23.3    23.2
 2017 275   111    24.1    24.1    24.1    24.0    23.9    23.8    23.7    23.6    23.5    23.3    23.2
 2017 276   112    24.3    24.2    24.2    24.1    24.0    23.9    23.8    23.7    23.6    23.4    23.2
 2017 277   113    24.3    24.3    24.2    24.2    24.1    24.0    23.8    23.7    23.6    23.4    23.3
 2017 278   114    24.4    24.3    24.3    24.2    24.1    24.0    23.9    23.8    23.6    23.5    23.3
 2017 279   115    24.5    24.4    24.4    24.3    24.2    24.1    24.0    23.8    23.7    23.5    23.3
 2017 280   116    24.4    24.4    24.4    24.3    24.2    24.1    23.9    23.8    23.7    23.5    23.3
 2017 281   117    24.4    24.4    24.3    24.3    24.2    24.1    23.9    23.8    23.7    23.5    23.3
 2017 282   118    24.4    24.4    24.4    24.3    24.2    24.1    23.9    23.8    23.7    23.5    23.3
 2017 283   119    24.5    24.4    24.4    24.3    24.2    24.1    24.0    23.8    23.7    23.5    23.3
 2017 284   120    24.5    24.5    24.4    24.3    24.3    24.1    24.0    23.9    23.7    23.5    23.4
 2017 285   121    24.6    24.6    24.5    24.4    24.3    24.2    24.1    23.9    23.8    23.6    23.4
 2017 286   122    24.6    24.6    24.5    24.4    24.4    24.2    24.1    23.9    23.8    23.6    23.4
 2017 287   123    24.6    24.6    24.5    24.4    24.3    24.2    24.1    23.9    23.8    23.6    23.4
 2017 288   124    24.5    24.5    24.4    24.4    24.3    24.2    24.0    23.9    23.7    23.6    23.4
 2017 289   125    24.5    24.5    24.5    24.4    24.3    24.2    24.0    23.9    23.7    23.6    23.4
 2017 290   126    24.5    24.5    24.4    24.4    24.3    24.1    24.0    23.9    23.7    23.6    23.4
 2017 291   127    24.5    24.5    24.4    24.3    24.2    24.1    24.0    23.8    23.7    23.5    23.4
 2017 292   128    24.6    24.5    24.5    24.4    24.3    24.2    24.0    23.9    23.8    23.6    23.4
 2017 293   129    24.6    24.6    24.5    24.4    24.3    24.2    24.1    23.9    23.8    23.6    23.4
 2017 294   130    24.6    24.5    24.5    24.4    24.3    24.2    24.0    23.9    23.8    23.6    23.4
 2017 295   131    24.5    24.5    24.4    24.4    24.3    24.1    24.0    23.9    23.7    23.6    23.4
 2017 296   132    24.5    24.5    24.4    24.3    24.3    24.1    24.0    23.9    23.7    23.6    23.4
 2017 297   133    24.5    24.5    24.5    24.4    24.3    24.2    24.0    23.9    23.8    23.6    23.4
 2017 298   134    24.6    24.6    24.6    24.5    24.4    24.2    24.1    24.0    23.8    23.7    23.5
 2017 299   135    24.7    24.6    24.6    24.5    24.4    24.3    24.1    24.0    23.8    23.7    23.5
 2017 300   136    24.8    24.8    24.7    24.6    24.5    24.4    24.2    24.1    23.9    23.8    23.6
 2017 301   137    24.8    24.8    24.7    24.6    24.5    24.4    24.2    24.1    23.9    23.8    23.6
 2017 302   138    24.8    24.8    24.7    24.6    24.5    24.4    24.2    24.1    23.9    23.8    23.6
 2017 303   139    24.8    24.8    24.7    24.6    24.5    24.4    24.2    24.1    23.9    23.7    23.5
 2017 304   140    24.8    24.8    24.7    24.6    24.5    24.4    24.2    24.1    23.9    23.7    23.5
 2017 305   141    24.7    24.7    24.6    24.5    24.4    24.3    24.1    24.0    23.9    23.7    23.5
 2017 306   142    24.7    24.7    24.6    24.5    24.4    24.3    24.1    24.0    23.9    23.7    23.5
 2017 307   143    24.6    24.5    24.5    24.4    24.3    24.2    24.0    23.9    23.8    23.6    23.4
 2017 308   144    24.5    24.5    24.4    24.3    24.2    24.1    24.0    23.8    23.7    23.6    23.4
 2017 309   145    24.4    24.4    24.4    24.3    24.2    24.1    23.9    23.8    23.7    23.5    23.4

*DSSAT Cropping System Model Ver. 4.7.5.008 -release  JAN 15, 2021 21:49:57

*RUN  28        : ERiMA DCC1                MZCER047 ETMZpolo    1
 MODEL          : MZCER047 - Maize
 EXPERIMENT     : ETMZpolo SN MELKSSAL
 DATA PATH      : C:\Users\kpodo\Documents\GitHub\ET_DSS_hist_Eunjin\TEST\
 TREATMENT  1   : ERiMA DCC1                MZCER047
  
! TAV  =    20.5
! TAMP =     4.1
!               Temperature (oC) by soil depth (cm):
!               Surface     0-5    5-15   15-20   20-35   35-50   50-65   65-81   81-97  97-118 118-200
@YEAR DOY   DAS    TS0D    TS1D    TS2D    TS3D    TS4D    TS5D    TS6D    TS7D    TS8D    TS9D    TS10
 2018 165     1    25.6    25.6    25.4    25.2    25.0    24.6    24.3    24.0    23.7    23.4    23.1
 2018 166     2    25.5    25.5    25.3    25.1    24.9    24.6    24.3    24.0    23.7    23.4    23.0
 2018 167     3    25.5    25.5    25.3    25.1    24.9    24.5    24.2    24.0    23.7    23.4    23.0
 2018 168     4    25.4    25.3    25.2    25.0    24.8    24.5    24.2    23.9    23.6    23.3    23.0
 2018 169     5    25.3    25.2    25.1    24.9    24.7    24.4    24.1    23.8    23.5    23.2    22.9
 2018 170     6    25.3    25.2    25.0    24.9    24.7    24.4    24.1    23.8    23.5    23.2    22.9
 2018 171     7    25.2    25.1    25.0    24.8    24.6    24.3    24.0    23.7    23.5    23.2    22.9
 2018 172     8    25.1    25.1    24.9    24.7    24.5    24.2    23.9    23.7    23.4    23.1    22.8
 2018 173     9    25.0    25.0    24.8    24.7    24.5    24.2    23.9    23.6    23.4    23.1    22.8
 2018 174    10    24.9    24.9    24.7    24.6    24.4    24.1    23.8    23.6    23.3    23.0    22.7
 2018 175    11    24.8    24.8    24.6    24.5    24.3    24.0    23.7    23.5    23.2    23.0    22.7
 2018 176    12    24.7    24.6    24.5    24.3    24.2    23.9    23.6    23.4    23.1    22.9    22.6
 2018 177    13    24.6    24.5    24.4    24.2    24.1    23.8    23.5    23.3    23.1    22.8    22.5
 2018 178    14    24.4    24.4    24.3    24.1    23.9    23.7    23.5    23.2    23.0    22.7    22.5
 2018 179    15    24.3    24.3    24.2    24.0    23.9    23.6    23.4    23.1    22.9    22.7    22.4
 2018 180    16    24.2    24.2    24.1    23.9    23.8    23.5    23.3    23.1    22.9    22.6    22.4
 2018 181    17    24.2    24.2    24.1    23.9    23.8    23.5    23.3    23.1    22.9    22.6    22.4
 2018 182    18    24.1    24.1    24.0    23.9    23.7    23.5    23.2    23.0    22.8    22.6    22.3
 2018 183    19    24.1    24.0    23.9    23.8    23.6    23.4    23.2    23.0    22.8    22.6    22.3
 2018 184    20    23.9    23.9    23.8    23.7    23.5    23.3    23.1    22.9    22.7    22.5    22.2
 2018 185    21    23.9    23.8    23.7    23.6    23.4    23.2    23.0    22.8    22.6    22.4    22.2
 2018 186    22    23.8    23.7    23.6    23.5    23.4    23.2    23.0    22.8    22.6    22.4    22.1
 2018 187    23    23.7    23.7    23.6    23.5    23.3    23.1    22.9    22.7    22.5    22.3    22.1
 2018 188    24    23.7    23.7    23.6    23.5    23.3    23.1    22.9    22.7    22.6    22.4    22.1
 2018 189    25    23.7    23.7    23.6    23.5    23.4    23.2    23.0    22.8    22.6    22.4    22.2
 2018 190    26    23.6    23.6    23.5    23.4    23.3    23.1    22.9    22.7    22.5    22.3    22.1
 2018 191    27    23.5    23.5    23.4    23.3    23.2    23.0    22.8    22.6    22.5    22.3    22.1
 2018 192    28    23.4    23.4    23.3    23.2    23.1    22.9    22.7    22.6    22.4    22.2    22.0
 2018 193    29    23.3    23.3    23.2    23.1    23.0    22.8    22.7    22.5    22.3    22.2    22.0
 2018 194    30    23.2    23.2    23.1    23.0    22.9    22.7    22.6    22.4    22.3    22.1    21.9
 2018 195    31    23.2    23.1    23.1    23.0    22.9    22.7    22.5    22.4    22.2    22.1    21.9
 2018 196    32    23.1    23.1    23.0    22.9    22.8    22.7    22.5    22.4    22.2    22.0    21.9
 2018 197    33    23.1    23.1    23.0    22.9    22.8    22.6    22.5    22.3    22.2    22.0    21.8
 2018 198    34    23.0    23.0    22.9    22.8    22.7    22.6    22.4    22.3    22.1    22.0    21.8
 2018 199    35    23.0    23.0    22.9    22.8    22.7    22.6    22.4    22.3    22.1    22.0    21.8
 2018 200    36    23.0    23.0    22.9    22.8    22.7    22.6    22.4    22.3    22.2    22.0    21.8
 2018 201    37    22.9    22.9    22.8    22.8    22.7    22.5    22.4    22.3    22.1    22.0    21.8
 2018 202    38    22.8    22.8    22.7    22.7    22.6    22.4    22.3    22.2    22.0    21.9    21.7
 2018 203    39    22.9    22.8    22.8    22.7    22.6    22.5    22.3    22.2    22.1    21.9    21.8
 2018 204    40    22.8    22.7    22.7    22.6    22.5    22.4    22.3    22.2    22.0    21.9    21.7
 2018 205    41    22.8    22.8    22.7    22.6    22.5    22.4    22.3    22.2    22.0    21.9    21.7
 2018 206    42    22.8    22.8    22.7    22.7    22.6    22.5    22.3    22.2    22.1    21.9    21.8
 2018 207    43    22.8    22.8    22.7    22.7    22.6    22.5    22.3    22.2    22.1    21.9    21.8
 2018 208    44    22.8    22.8    22.7    22.6    22.6    22.4    22.3    22.2    22.1    21.9    21.8
 2018 209    45    22.8    22.8    22.7    22.7    22.6    22.5    22.4    22.2    22.1    22.0    21.8
 2018 210    46    22.7    22.7    22.7    22.6    22.5    22.4    22.3    22.2    22.1    21.9    21.8
 2018 211    47    22.7    22.7    22.7    22.6    22.5    22.4    22.3    22.2    22.1    21.9    21.8
 2018 212    48    22.9    22.8    22.8    22.7    22.6    22.5    22.4    22.3    22.2    22.0    21.9
 2018 213    49    22.9    22.9    22.8    22.8    22.7    22.6    22.5    22.3    22.2    22.1    21.9
 2018 214    50    22.9    22.8    22.8    22.7    22.7    22.5    22.4    22.3    22.2    22.0    21.9
 2018 215    51    22.8    22.8    22.7    22.7    22.6    22.5    22.4    22.3    22.2    22.0    21.9
 2018 216    52    22.8    22.7    22.7    22.6    22.6    22.5    22.4    22.2    22.1    22.0    21.9
 2018 217    53    22.7    22.7    22.6    22.6    22.5    22.4    22.3    22.2    22.1    22.0    21.8
 2018 218    54    22.6    22.6    22.6    22.5    22.5    22.4    22.3    22.2    22.1    22.0    21.8
 2018 219    55    22.8    22.7    22.7    22.6    22.6    22.5    22.4    22.3    22.2    22.0    21.9
 2018 220    56    22.9    22.8    22.8    22.7    22.7    22.6    22.5    22.3    22.2    22.1    22.0
 2018 221    57    22.9    22.9    22.8    22.8    22.7    22.6    22.5    22.4    22.3    22.1    22.0
 2018 222    58    22.9    22.9    22.8    22.8    22.7    22.6    22.5    22.4    22.3    22.1    22.0
 2018 223    59    22.9    22.9    22.8    22.8    22.7    22.6    22.5    22.4    22.3    22.1    22.0
 2018 224    60    22.8    22.8    22.8    22.7    22.7    22.6    22.5    22.3    22.2    22.1    22.0
 2018 225    61    22.9    22.9    22.8    22.8    22.7    22.6    22.5    22.4    22.3    22.1    22.0
 2018 226    62    23.0    22.9    22.9    22.8    22.8    22.7    22.6    22.5    22.3    22.2    22.1
 2018 227    63    23.0    23.0    22.9    22.9    22.8    22.7    22.6    22.5    22.4    22.2    22.1
 2018 228    64    23.1    23.1    23.0    23.0    22.9    22.8    22.7    22.6    22.4    22.3    22.1
 2018 229    65    23.0    23.0    22.9    22.9    22.8    22.7    22.6    22.5    22.4    22.3    22.1
 2018 230    66    22.8    22.8    22.8    22.8    22.7    22.6    22.5    22.4    22.3    22.2    22.0
 2018 231    67    22.7    22.7    22.7    22.7    22.6    22.5    22.4    22.3    22.2    22.1    22.0
 2018 232    68    22.6    22.6    22.6    22.6    22.5    22.4    22.3    22.3    22.2    22.1    21.9
 2018 233    69    22.6    22.5    22.5    22.5    22.4    22.4    22.3    22.2    22.1    22.0    21.9
 2018 234    70    22.7    22.7    22.7    22.6    22.6    22.5    22.4    22.3    22.2    22.1    22.0
 2018 235    71    22.7    22.7    22.7    22.6    22.6    22.5    22.4    22.3    22.2    22.1    22.0
 2018 236    72    22.7    22.7    22.7    22.6    22.6    22.5    22.4    22.3    22.3    22.2    22.0
 2018 237    73    22.7    22.7    22.7    22.6    22.6    22.5    22.5    22.4    22.3    22.2    22.1
 2018 238    74    22.8    22.8    22.7    22.7    22.7    22.6    22.5    22.4    22.3    22.2    22.1
 2018 239    75    22.7    22.6    22.6    22.6    22.5    22.5    22.4    22.3    22.3    22.2    22.0
 2018 240    76    22.7    22.7    22.7    22.7    22.6    22.6    22.5    22.4    22.3    22.2    22.1
 2018 241    77    22.8    22.8    22.7    22.7    22.7    22.6    22.5    22.4    22.4    22.3    22.1
 2018 242    78    22.8    22.8    22.7    22.7    22.7    22.6    22.5    22.4    22.4    22.3    22.1
 2018 243    79    22.7    22.7    22.7    22.7    22.6    22.6    22.5    22.4    22.3    22.2    22.1
 2018 244    80    22.8    22.8    22.8    22.7    22.7    22.6    22.6    22.5    22.4    22.3    22.2
 2018 245    81    22.9    22.9    22.9    22.8    22.8    22.7    22.6    22.6    22.5    22.4    22.3
 2018 246    82    23.0    23.0    23.0    22.9    22.9    22.8    22.7    22.7    22.6    22.5    22.3
 2018 247    83    23.1    23.1    23.1    23.1    23.0    22.9    22.8    22.8    22.7    22.5    22.4
 2018 248    84    23.2    23.2    23.1    23.1    23.0    23.0    22.9    22.8    22.7    22.6    22.4
 2018 249    85    23.2    23.2    23.2    23.1    23.1    23.0    22.9    22.8    22.7    22.6    22.5
 2018 250    86    23.2    23.1    23.1    23.1    23.0    22.9    22.9    22.8    22.7    22.6    22.4
 2018 251    87    23.1    23.1    23.1    23.1    23.0    22.9    22.9    22.8    22.7    22.6    22.4
 2018 252    88    23.1    23.1    23.1    23.1    23.0    22.9    22.9    22.8    22.7    22.6    22.4
 2018 253    89    23.2    23.2    23.2    23.1    23.1    23.0    22.9    22.8    22.7    22.6    22.5
 2018 254    90    23.2    23.2    23.2    23.2    23.1    23.0    22.9    22.8    22.8    22.6    22.5
 2018 255    91    23.3    23.3    23.2    23.2    23.1    23.1    23.0    22.9    22.8    22.7    22.5
 2018 256    92    23.3    23.2    23.2    23.2    23.1    23.0    23.0    22.9    22.8    22.7    22.5
 2018 257    93    23.3    23.3    23.3    23.2    23.2    23.1    23.0    22.9    22.8    22.7    22.6
 2018 258    94    23.3    23.3    23.3    23.2    23.2    23.1    23.0    22.9    22.8    22.7    22.6
 2018 259    95    23.4    23.4    23.4    23.3    23.3    23.2    23.1    23.0    22.9    22.8    22.6
 2018 260    96    23.5    23.5    23.4    23.4    23.3    23.2    23.2    23.1    23.0    22.8    22.7
 2018 261    97    23.5    23.5    23.4    23.4    23.3    23.3    23.2    23.1    23.0    22.9    22.7
 2018 262    98    23.5    23.5    23.5    23.4    23.4    23.3    23.2    23.1    23.0    22.9    22.7
 2018 263    99    23.5    23.5    23.5    23.4    23.4    23.3    23.2    23.1    23.0    22.9    22.8
 2018 264   100    23.6    23.6    23.6    23.5    23.5    23.4    23.3    23.2    23.1    22.9    22.8
 2018 265   101    23.6    23.6    23.6    23.5    23.5    23.4    23.3    23.2    23.1    23.0    22.8
 2018 266   102    23.8    23.7    23.7    23.6    23.6    23.5    23.4    23.3    23.2    23.0    22.9
 2018 267   103    23.8    23.8    23.7    23.7    23.6    23.5    23.4    23.3    23.2    23.1    22.9
 2018 268   104    23.9    23.9    23.8    23.8    23.7    23.6    23.5    23.4    23.3    23.1    23.0
 2018 269   105    23.9    23.9    23.8    23.8    23.7    23.6    23.5    23.4    23.3    23.1    23.0
 2018 270   106    24.0    24.0    24.0    23.9    23.8    23.7    23.6    23.5    23.4    23.2    23.1
 2018 271   107    24.1    24.1    24.1    24.0    23.9    23.8    23.7    23.6    23.4    23.3    23.1
 2018 272   108    24.3    24.2    24.2    24.1    24.0    23.9    23.8    23.7    23.5    23.4    23.2
 2018 273   109    24.3    24.3    24.2    24.2    24.1    23.9    23.8    23.7    23.5    23.4    23.2
 2018 274   110    24.4    24.4    24.3    24.3    24.2    24.0    23.9    23.8    23.6    23.5    23.3
 2018 275   111    24.3    24.3    24.3    24.2    24.1    24.0    23.9    23.7    23.6    23.4    23.2
 2018 276   112    24.2    24.2    24.1    24.1    24.0    23.9    23.8    23.6    23.5    23.3    23.2
 2018 277   113    24.1    24.1    24.1    24.0    23.9    23.8    23.7    23.6    23.4    23.3    23.1
 2018 278   114    24.0    24.0    24.0    23.9    23.8    23.7    23.6    23.5    23.4    23.2    23.1
 2018 279   115    24.0    24.0    23.9    23.9    23.8    23.7    23.6    23.5    23.3    23.2    23.0
 2018 280   116    24.1    24.0    24.0    23.9    23.9    23.8    23.6    23.5    23.4    23.3    23.1
 2018 281   117    24.1    24.1    24.0    24.0    23.9    23.8    23.7    23.5    23.4    23.3    23.1
 2018 282   118    24.2    24.1    24.1    24.0    24.0    23.8    23.7    23.6    23.5    23.3    23.1
 2018 283   119    24.3    24.3    24.2    24.2    24.1    23.9    23.8    23.7    23.6    23.4    23.2
 2018 284   120    24.4    24.4    24.3    24.2    24.1    24.0    23.9    23.8    23.6    23.5    23.3
 2018 285   121    24.4    24.3    24.3    24.2    24.1    24.0    23.9    23.7    23.6    23.5    23.3
 2018 286   122    24.5    24.4    24.4    24.3    24.2    24.1    24.0    23.8    23.7    23.5    23.3
 2018 287   123    24.5    24.4    24.4    24.3    24.2    24.1    23.9    23.8    23.7    23.5    23.3
 2018 288   124    24.3    24.3    24.2    24.1    24.1    23.9    23.8    23.7    23.6    23.4    23.2
 2018 289   125    24.3    24.2    24.2    24.1    24.0    23.9    23.8    23.7    23.6    23.4    23.2
 2018 290   126    24.3    24.3    24.2    24.1    24.1    23.9    23.8    23.7    23.6    23.4    23.2
 2018 291   127    24.3    24.3    24.2    24.2    24.1    24.0    23.8    23.7    23.6    23.4    23.3
 2018 292   128    24.3    24.3    24.2    24.1    24.1    23.9    23.8    23.7    23.6    23.4    23.3
 2018 293   129    24.4    24.4    24.4    24.3    24.2    24.1    23.9    23.8    23.7    23.5    23.3
 2018 294   130    24.5    24.4    24.4    24.3    24.2    24.1    24.0    23.8    23.7    23.5    23.3
 2018 295   131    24.5    24.5    24.4    24.4    24.3    24.1    24.0    23.9    23.7    23.6    23.4
 2018 296   132    24.4    24.4    24.4    24.3    24.2    24.1    24.0    23.8    23.7    23.5    23.3
 2018 297   133    24.5    24.4    24.4    24.3    24.2    24.1    24.0    23.8    23.7    23.5    23.4
 2018 298   134    24.4    24.4    24.3    24.3    24.2    24.1    23.9    23.8    23.7    23.5    23.3
