*SOIL ORGANIC N BALANCE

*DSSAT Cropping System Model Ver. 4.7.5.008 -release  JAN 15, 2021 21:49:57

*RUN   1        : ERiMA DCC1                MZCER047 ETMZpolo    1
 MODEL          : MZCER047 - Maize
 EXPERIMENT     : ETMZpolo SN MELKSSAL
 DATA PATH      : C:\Users\kpodo\Documents\GitHub\ET_DSS_hist_Eunjin\TEST\
 TREATMENT  1   : ERiMA DCC1                MZCER047
  


!                                        INITIAL Year/Doy      FINAL Year/Doy
!                                                1991/165            1991/292
!SOIL N BALANCE                                 -----------kg N/ha-----------

!   Soil Humus N                                 18903.17            18786.83
!   Soil Litter N                                    0.00                3.41
!   N in Surface Residue                             0.00                0.00

!   Added to / Removed from Soil:
!   N in Harvest Residues from Previous Crop         0.00
!   N from Organic Applications                      0.00
!   N from senesced plant matter                     4.26
!   N immobilized                                    0.00
!   N mineralized                                                      117.19

!   Total N balance                              18907.43            18907.43
!   Balance                                                            -0.002

!===============================================================================

*DSSAT Cropping System Model Ver. 4.7.5.008 -release  JAN 15, 2021 21:49:57

*RUN   2        : ERiMA DCC1                MZCER047 ETMZpolo    1
 MODEL          : MZCER047 - Maize
 EXPERIMENT     : ETMZpolo SN MELKSSAL
 DATA PATH      : C:\Users\kpodo\Documents\GitHub\ET_DSS_hist_Eunjin\TEST\
 TREATMENT  1   : ERiMA DCC1                MZCER047
  


!                                        INITIAL Year/Doy      FINAL Year/Doy
!                                                1992/165            1992/305
!SOIL N BALANCE                                 -----------kg N/ha-----------

!   Soil Humus N                                 18903.17            18774.73
!   Soil Litter N                                    0.00                3.77
!   N in Surface Residue                             0.00                0.00

!   Added to / Removed from Soil:
!   N in Harvest Residues from Previous Crop         0.00
!   N from Organic Applications                      0.00
!   N from senesced plant matter                     4.92
!   N immobilized                                    0.00
!   N mineralized                                                      129.59

!   Total N balance                              18908.09            18908.09
!   Balance                                                             0.000

!===============================================================================

*DSSAT Cropping System Model Ver. 4.7.5.008 -release  JAN 15, 2021 21:49:57

*RUN   3        : ERiMA DCC1                MZCER047 ETMZpolo    1
 MODEL          : MZCER047 - Maize
 EXPERIMENT     : ETMZpolo SN MELKSSAL
 DATA PATH      : C:\Users\kpodo\Documents\GitHub\ET_DSS_hist_Eunjin\TEST\
 TREATMENT  1   : ERiMA DCC1                MZCER047
  


!                                        INITIAL Year/Doy      FINAL Year/Doy
!                                                1993/165            1993/301
!SOIL N BALANCE                                 -----------kg N/ha-----------

!   Soil Humus N                                 18903.17            18774.65
!   Soil Litter N                                    0.00                3.86
!   N in Surface Residue                             0.00                0.00

!   Added to / Removed from Soil:
!   N in Harvest Residues from Previous Crop         0.00
!   N from Organic Applications                      0.00
!   N from senesced plant matter                     4.98
!   N immobilized                                    0.00
!   N mineralized                                                      129.65

!   Total N balance                              18908.15            18908.16
!   Balance                                                             0.002

!===============================================================================

*DSSAT Cropping System Model Ver. 4.7.5.008 -release  JAN 15, 2021 21:49:57

*RUN   4        : ERiMA DCC1                MZCER047 ETMZpolo    1
 MODEL          : MZCER047 - Maize
 EXPERIMENT     : ETMZpolo SN MELKSSAL
 DATA PATH      : C:\Users\kpodo\Documents\GitHub\ET_DSS_hist_Eunjin\TEST\
 TREATMENT  1   : ERiMA DCC1                MZCER047
  


!                                        INITIAL Year/Doy      FINAL Year/Doy
!                                                1994/165            1994/299
!SOIL N BALANCE                                 -----------kg N/ha-----------

!   Soil Humus N                                 18903.17            18784.35
!   Soil Litter N                                    0.00                3.49
!   N in Surface Residue                             0.00                0.00

!   Added to / Removed from Soil:
!   N in Harvest Residues from Previous Crop         0.00
!   N from Organic Applications                      0.00
!   N from senesced plant matter                     4.22
!   N immobilized                                    0.00
!   N mineralized                                                      119.55

!   Total N balance                              18907.39            18907.39
!   Balance                                                             0.002

!===============================================================================

*DSSAT Cropping System Model Ver. 4.7.5.008 -release  JAN 15, 2021 21:49:57

*RUN   5        : ERiMA DCC1                MZCER047 ETMZpolo    1
 MODEL          : MZCER047 - Maize
 EXPERIMENT     : ETMZpolo SN MELKSSAL
 DATA PATH      : C:\Users\kpodo\Documents\GitHub\ET_DSS_hist_Eunjin\TEST\
 TREATMENT  1   : ERiMA DCC1                MZCER047
  


!                                        INITIAL Year/Doy      FINAL Year/Doy
!                                                1995/165            1995/295
!SOIL N BALANCE                                 -----------kg N/ha-----------

!   Soil Humus N                                 18903.17            18780.44
!   Soil Litter N                                    0.00                3.48
!   N in Surface Residue                             0.00                0.00

!   Added to / Removed from Soil:
!   N in Harvest Residues from Previous Crop         0.00
!   N from Organic Applications                      0.00
!   N from senesced plant matter                     4.40
!   N immobilized                                    0.00
!   N mineralized                                                      123.65

!   Total N balance                              18907.57            18907.58
!   Balance                                                             0.002

!===============================================================================

*DSSAT Cropping System Model Ver. 4.7.5.008 -release  JAN 15, 2021 21:49:57

*RUN   6        : ERiMA DCC1                MZCER047 ETMZpolo    1
 MODEL          : MZCER047 - Maize
 EXPERIMENT     : ETMZpolo SN MELKSSAL
 DATA PATH      : C:\Users\kpodo\Documents\GitHub\ET_DSS_hist_Eunjin\TEST\
 TREATMENT  1   : ERiMA DCC1                MZCER047
  


!                                        INITIAL Year/Doy      FINAL Year/Doy
!                                                1996/165            1996/302
!SOIL N BALANCE                                 -----------kg N/ha-----------

!   Soil Humus N                                 18903.17            18781.80
!   Soil Litter N                                    0.00                3.65
!   N in Surface Residue                             0.00                0.00

!   Added to / Removed from Soil:
!   N in Harvest Residues from Previous Crop         0.00
!   N from Organic Applications                      0.00
!   N from senesced plant matter                     4.27
!   N immobilized                                    0.00
!   N mineralized                                                      121.99

!   Total N balance                              18907.45            18907.45
!   Balance                                                             0.000

!===============================================================================

*DSSAT Cropping System Model Ver. 4.7.5.008 -release  JAN 15, 2021 21:49:57

*RUN   7        : ERiMA DCC1                MZCER047 ETMZpolo    1
 MODEL          : MZCER047 - Maize
 EXPERIMENT     : ETMZpolo SN MELKSSAL
 DATA PATH      : C:\Users\kpodo\Documents\GitHub\ET_DSS_hist_Eunjin\TEST\
 TREATMENT  1   : ERiMA DCC1                MZCER047
  


!                                        INITIAL Year/Doy      FINAL Year/Doy
!                                                1997/165            1997/290
!SOIL N BALANCE                                 -----------kg N/ha-----------

!   Soil Humus N                                 18903.17            18787.63
!   Soil Litter N                                    0.00                2.70
!   N in Surface Residue                             0.00                0.00

!   Added to / Removed from Soil:
!   N in Harvest Residues from Previous Crop         0.00
!   N from Organic Applications                      0.00
!   N from senesced plant matter                     3.17
!   N immobilized                                    0.00
!   N mineralized                                                      116.01

!   Total N balance                              18906.34            18906.34
!   Balance                                                             0.000

!===============================================================================

*DSSAT Cropping System Model Ver. 4.7.5.008 -release  JAN 15, 2021 21:49:57

*RUN   8        : ERiMA DCC1                MZCER047 ETMZpolo    1
 MODEL          : MZCER047 - Maize
 EXPERIMENT     : ETMZpolo SN MELKSSAL
 DATA PATH      : C:\Users\kpodo\Documents\GitHub\ET_DSS_hist_Eunjin\TEST\
 TREATMENT  1   : ERiMA DCC1                MZCER047
  


!                                        INITIAL Year/Doy      FINAL Year/Doy
!                                                1998/165            1998/300
!SOIL N BALANCE                                 -----------kg N/ha-----------

!   Soil Humus N                                 18903.17            18770.75
!   Soil Litter N                                    0.00                3.12
!   N in Surface Residue                             0.00                0.00

!   Added to / Removed from Soil:
!   N in Harvest Residues from Previous Crop         0.00
!   N from Organic Applications                      0.00
!   N from senesced plant matter                     4.48
!   N immobilized                                    0.00
!   N mineralized                                                      133.78

!   Total N balance                              18907.65            18907.65
!   Balance                                                             0.000

!===============================================================================

*DSSAT Cropping System Model Ver. 4.7.5.008 -release  JAN 15, 2021 21:49:57

*RUN   9        : ERiMA DCC1                MZCER047 ETMZpolo    1
 MODEL          : MZCER047 - Maize
 EXPERIMENT     : ETMZpolo SN MELKSSAL
 DATA PATH      : C:\Users\kpodo\Documents\GitHub\ET_DSS_hist_Eunjin\TEST\
 TREATMENT  1   : ERiMA DCC1                MZCER047
  


!                                        INITIAL Year/Doy      FINAL Year/Doy
!                                                1999/165            1999/308
!SOIL N BALANCE                                 -----------kg N/ha-----------

!   Soil Humus N                                 18903.17            18781.02
!   Soil Litter N                                    0.00                3.67
!   N in Surface Residue                             0.00                0.00

!   Added to / Removed from Soil:
!   N in Harvest Residues from Previous Crop         0.00
!   N from Organic Applications                      0.00
!   N from senesced plant matter                     4.05
!   N immobilized                                    0.00
!   N mineralized                                                      122.53

!   Total N balance                              18907.22            18907.23
!   Balance                                                             0.002

!===============================================================================

*DSSAT Cropping System Model Ver. 4.7.5.008 -release  JAN 15, 2021 21:49:57

*RUN  10        : ERiMA DCC1                MZCER047 ETMZpolo    1
 MODEL          : MZCER047 - Maize
 EXPERIMENT     : ETMZpolo SN MELKSSAL
 DATA PATH      : C:\Users\kpodo\Documents\GitHub\ET_DSS_hist_Eunjin\TEST\
 TREATMENT  1   : ERiMA DCC1                MZCER047
  


!                                        INITIAL Year/Doy      FINAL Year/Doy
!                                                2000/165            2000/306
!SOIL N BALANCE                                 -----------kg N/ha-----------

!   Soil Humus N                                 18903.17            18772.98
!   Soil Litter N                                    0.00                3.67
!   N in Surface Residue                             0.00                0.00

!   Added to / Removed from Soil:
!   N in Harvest Residues from Previous Crop         0.00
!   N from Organic Applications                      0.00
!   N from senesced plant matter                     4.71
!   N immobilized                                    0.00
!   N mineralized                                                      131.22

!   Total N balance                              18907.88            18907.88
!   Balance                                                            -0.004

!===============================================================================

*DSSAT Cropping System Model Ver. 4.7.5.008 -release  JAN 15, 2021 21:49:57

*RUN  11        : ERiMA DCC1                MZCER047 ETMZpolo    1
 MODEL          : MZCER047 - Maize
 EXPERIMENT     : ETMZpolo SN MELKSSAL
 DATA PATH      : C:\Users\kpodo\Documents\GitHub\ET_DSS_hist_Eunjin\TEST\
 TREATMENT  1   : ERiMA DCC1                MZCER047
  


!                                        INITIAL Year/Doy      FINAL Year/Doy
!                                                2001/165            2001/300
!SOIL N BALANCE                                 -----------kg N/ha-----------

!   Soil Humus N                                 18903.17            18780.35
!   Soil Litter N                                    0.00                3.69
!   N in Surface Residue                             0.00                0.00

!   Added to / Removed from Soil:
!   N in Harvest Residues from Previous Crop         0.00
!   N from Organic Applications                      0.00
!   N from senesced plant matter                     4.51
!   N immobilized                                    0.00
!   N mineralized                                                      123.64

!   Total N balance                              18907.68            18907.68
!   Balance                                                            -0.004

!===============================================================================

*DSSAT Cropping System Model Ver. 4.7.5.008 -release  JAN 15, 2021 21:49:57

*RUN  12        : ERiMA DCC1                MZCER047 ETMZpolo    1
 MODEL          : MZCER047 - Maize
 EXPERIMENT     : ETMZpolo SN MELKSSAL
 DATA PATH      : C:\Users\kpodo\Documents\GitHub\ET_DSS_hist_Eunjin\TEST\
 TREATMENT  1   : ERiMA DCC1                MZCER047
  


!                                        INITIAL Year/Doy      FINAL Year/Doy
!                                                2002/165            2002/291
!SOIL N BALANCE                                 -----------kg N/ha-----------

!   Soil Humus N                                 18903.17            18787.61
!   Soil Litter N                                    0.00                1.97
!   N in Surface Residue                             0.00                0.00

!   Added to / Removed from Soil:
!   N in Harvest Residues from Previous Crop         0.00
!   N from Organic Applications                      0.00
!   N from senesced plant matter                     2.40
!   N immobilized                                    0.00
!   N mineralized                                                      115.99

!   Total N balance                              18905.57            18905.57
!   Balance                                                             0.000

!===============================================================================

*DSSAT Cropping System Model Ver. 4.7.5.008 -release  JAN 15, 2021 21:49:57

*RUN  13        : ERiMA DCC1                MZCER047 ETMZpolo    1
 MODEL          : MZCER047 - Maize
 EXPERIMENT     : ETMZpolo SN MELKSSAL
 DATA PATH      : C:\Users\kpodo\Documents\GitHub\ET_DSS_hist_Eunjin\TEST\
 TREATMENT  1   : ERiMA DCC1                MZCER047
  


!                                        INITIAL Year/Doy      FINAL Year/Doy
!                                                2003/165            2003/297
!SOIL N BALANCE                                 -----------kg N/ha-----------

!   Soil Humus N                                 18903.17            18779.82
!   Soil Litter N                                    0.00                3.40
!   N in Surface Residue                             0.00                0.00

!   Added to / Removed from Soil:
!   N in Harvest Residues from Previous Crop         0.00
!   N from Organic Applications                      0.00
!   N from senesced plant matter                     4.43
!   N immobilized                                    0.00
!   N mineralized                                                      124.38

!   Total N balance                              18907.60            18907.60
!   Balance                                                             0.002

!===============================================================================

*DSSAT Cropping System Model Ver. 4.7.5.008 -release  JAN 15, 2021 21:49:57

*RUN  14        : ERiMA DCC1                MZCER047 ETMZpolo    1
 MODEL          : MZCER047 - Maize
 EXPERIMENT     : ETMZpolo SN MELKSSAL
 DATA PATH      : C:\Users\kpodo\Documents\GitHub\ET_DSS_hist_Eunjin\TEST\
 TREATMENT  1   : ERiMA DCC1                MZCER047
  


!                                        INITIAL Year/Doy      FINAL Year/Doy
!                                                2004/165            2004/303
!SOIL N BALANCE                                 -----------kg N/ha-----------

!   Soil Humus N                                 18903.17            18778.98
!   Soil Litter N                                    0.00                3.63
!   N in Surface Residue                             0.00                0.00

!   Added to / Removed from Soil:
!   N in Harvest Residues from Previous Crop         0.00
!   N from Organic Applications                      0.00
!   N from senesced plant matter                     4.33
!   N immobilized                                    0.00
!   N mineralized                                                      124.88

!   Total N balance                              18907.50            18907.50
!   Balance                                                             0.000

!===============================================================================

*DSSAT Cropping System Model Ver. 4.7.5.008 -release  JAN 15, 2021 21:49:57

*RUN  15        : ERiMA DCC1                MZCER047 ETMZpolo    1
 MODEL          : MZCER047 - Maize
 EXPERIMENT     : ETMZpolo SN MELKSSAL
 DATA PATH      : C:\Users\kpodo\Documents\GitHub\ET_DSS_hist_Eunjin\TEST\
 TREATMENT  1   : ERiMA DCC1                MZCER047
  


!                                        INITIAL Year/Doy      FINAL Year/Doy
!                                                2005/165            2005/296
!SOIL N BALANCE                                 -----------kg N/ha-----------

!   Soil Humus N                                 18903.17            18784.15
!   Soil Litter N                                    0.00                3.70
!   N in Surface Residue                             0.00                0.00

!   Added to / Removed from Soil:
!   N in Harvest Residues from Previous Crop         0.00
!   N from Organic Applications                      0.00
!   N from senesced plant matter                     4.41
!   N immobilized                                    0.00
!   N mineralized                                                      119.73

!   Total N balance                              18907.58            18907.59
!   Balance                                                             0.002

!===============================================================================

*DSSAT Cropping System Model Ver. 4.7.5.008 -release  JAN 15, 2021 21:49:57

*RUN  16        : ERiMA DCC1                MZCER047 ETMZpolo    1
 MODEL          : MZCER047 - Maize
 EXPERIMENT     : ETMZpolo SN MELKSSAL
 DATA PATH      : C:\Users\kpodo\Documents\GitHub\ET_DSS_hist_Eunjin\TEST\
 TREATMENT  1   : ERiMA DCC1                MZCER047
  


!                                        INITIAL Year/Doy      FINAL Year/Doy
!                                                2006/165            2006/296
!SOIL N BALANCE                                 -----------kg N/ha-----------

!   Soil Humus N                                 18903.17            18780.47
!   Soil Litter N                                    0.00                3.69
!   N in Surface Residue                             0.00                0.00

!   Added to / Removed from Soil:
!   N in Harvest Residues from Previous Crop         0.00
!   N from Organic Applications                      0.00
!   N from senesced plant matter                     4.92
!   N immobilized                                    0.00
!   N mineralized                                                      123.94

!   Total N balance                              18908.10            18908.10
!   Balance                                                             0.002

!===============================================================================

*DSSAT Cropping System Model Ver. 4.7.5.008 -release  JAN 15, 2021 21:49:57

*RUN  17        : ERiMA DCC1                MZCER047 ETMZpolo    1
 MODEL          : MZCER047 - Maize
 EXPERIMENT     : ETMZpolo SN MELKSSAL
 DATA PATH      : C:\Users\kpodo\Documents\GitHub\ET_DSS_hist_Eunjin\TEST\
 TREATMENT  1   : ERiMA DCC1                MZCER047
  


!                                        INITIAL Year/Doy      FINAL Year/Doy
!                                                2007/165            2007/302
!SOIL N BALANCE                                 -----------kg N/ha-----------

!   Soil Humus N                                 18903.17            18778.99
!   Soil Litter N                                    0.00                3.58
!   N in Surface Residue                             0.00                0.00

!   Added to / Removed from Soil:
!   N in Harvest Residues from Previous Crop         0.00
!   N from Organic Applications                      0.00
!   N from senesced plant matter                     4.49
!   N immobilized                                    0.00
!   N mineralized                                                      125.09

!   Total N balance                              18907.66            18907.66
!   Balance                                                             0.002

!===============================================================================

*DSSAT Cropping System Model Ver. 4.7.5.008 -release  JAN 15, 2021 21:49:57

*RUN  18        : ERiMA DCC1                MZCER047 ETMZpolo    1
 MODEL          : MZCER047 - Maize
 EXPERIMENT     : ETMZpolo SN MELKSSAL
 DATA PATH      : C:\Users\kpodo\Documents\GitHub\ET_DSS_hist_Eunjin\TEST\
 TREATMENT  1   : ERiMA DCC1                MZCER047
  


!                                        INITIAL Year/Doy      FINAL Year/Doy
!                                                2008/165            2008/299
!SOIL N BALANCE                                 -----------kg N/ha-----------

!   Soil Humus N                                 18903.17            18776.81
!   Soil Litter N                                    0.00                3.47
!   N in Surface Residue                             0.00                0.00

!   Added to / Removed from Soil:
!   N in Harvest Residues from Previous Crop         0.00
!   N from Organic Applications                      0.00
!   N from senesced plant matter                     4.31
!   N immobilized                                    0.00
!   N mineralized                                                      127.20

!   Total N balance                              18907.48            18907.48
!   Balance                                                             0.000

!===============================================================================

*DSSAT Cropping System Model Ver. 4.7.5.008 -release  JAN 15, 2021 21:49:57

*RUN  19        : ERiMA DCC1                MZCER047 ETMZpolo    1
 MODEL          : MZCER047 - Maize
 EXPERIMENT     : ETMZpolo SN MELKSSAL
 DATA PATH      : C:\Users\kpodo\Documents\GitHub\ET_DSS_hist_Eunjin\TEST\
 TREATMENT  1   : ERiMA DCC1                MZCER047
  


!                                        INITIAL Year/Doy      FINAL Year/Doy
!                                                2009/165            2009/296
!SOIL N BALANCE                                 -----------kg N/ha-----------

!   Soil Humus N                                 18903.17            18779.99
!   Soil Litter N                                    0.00                3.33
!   N in Surface Residue                             0.00                0.00

!   Added to / Removed from Soil:
!   N in Harvest Residues from Previous Crop         0.00
!   N from Organic Applications                      0.00
!   N from senesced plant matter                     4.09
!   N immobilized                                    0.00
!   N mineralized                                                      123.94

!   Total N balance                              18907.26            18907.26
!   Balance                                                            -0.002

!===============================================================================

*DSSAT Cropping System Model Ver. 4.7.5.008 -release  JAN 15, 2021 21:49:57

*RUN  20        : ERiMA DCC1                MZCER047 ETMZpolo    1
 MODEL          : MZCER047 - Maize
 EXPERIMENT     : ETMZpolo SN MELKSSAL
 DATA PATH      : C:\Users\kpodo\Documents\GitHub\ET_DSS_hist_Eunjin\TEST\
 TREATMENT  1   : ERiMA DCC1                MZCER047
  


!                                        INITIAL Year/Doy      FINAL Year/Doy
!                                                2010/165            2010/285
!SOIL N BALANCE                                 -----------kg N/ha-----------

!   Soil Humus N                                 18903.17            18782.40
!   Soil Litter N                                    0.00                2.84
!   N in Surface Residue                             0.00                0.00

!   Added to / Removed from Soil:
!   N in Harvest Residues from Previous Crop         0.00
!   N from Organic Applications                      0.00
!   N from senesced plant matter                     4.15
!   N immobilized                                    0.00
!   N mineralized                                                      122.08

!   Total N balance                              18907.33            18907.33
!   Balance                                                             0.000

!===============================================================================

*DSSAT Cropping System Model Ver. 4.7.5.008 -release  JAN 15, 2021 21:49:57

*RUN  21        : ERiMA DCC1                MZCER047 ETMZpolo    1
 MODEL          : MZCER047 - Maize
 EXPERIMENT     : ETMZpolo SN MELKSSAL
 DATA PATH      : C:\Users\kpodo\Documents\GitHub\ET_DSS_hist_Eunjin\TEST\
 TREATMENT  1   : ERiMA DCC1                MZCER047
  


!                                        INITIAL Year/Doy      FINAL Year/Doy
!                                                2011/165            2011/319
!SOIL N BALANCE                                 -----------kg N/ha-----------

!   Soil Humus N                                 18903.17            18774.92
!   Soil Litter N                                    0.00                4.45
!   N in Surface Residue                             0.00                0.00

!   Added to / Removed from Soil:
!   N in Harvest Residues from Previous Crop         0.00
!   N from Organic Applications                      0.00
!   N from senesced plant matter                     5.34
!   N immobilized                                    0.00
!   N mineralized                                                      129.14

!   Total N balance                              18908.51            18908.51
!   Balance                                                             0.002

!===============================================================================

*DSSAT Cropping System Model Ver. 4.7.5.008 -release  JAN 15, 2021 21:49:57

*RUN  22        : ERiMA DCC1                MZCER047 ETMZpolo    1
 MODEL          : MZCER047 - Maize
 EXPERIMENT     : ETMZpolo SN MELKSSAL
 DATA PATH      : C:\Users\kpodo\Documents\GitHub\ET_DSS_hist_Eunjin\TEST\
 TREATMENT  1   : ERiMA DCC1                MZCER047
  


!                                        INITIAL Year/Doy      FINAL Year/Doy
!                                                2012/165            2012/312
!SOIL N BALANCE                                 -----------kg N/ha-----------

!   Soil Humus N                                 18903.17            18778.36
!   Soil Litter N                                    0.00                4.45
!   N in Surface Residue                             0.00                0.00

!   Added to / Removed from Soil:
!   N in Harvest Residues from Previous Crop         0.00
!   N from Organic Applications                      0.00
!   N from senesced plant matter                     5.54
!   N immobilized                                    0.00
!   N mineralized                                                      125.90

!   Total N balance                              18908.71            18908.71
!   Balance                                                             0.000

!===============================================================================

*DSSAT Cropping System Model Ver. 4.7.5.008 -release  JAN 15, 2021 21:49:57

*RUN  23        : ERiMA DCC1                MZCER047 ETMZpolo    1
 MODEL          : MZCER047 - Maize
 EXPERIMENT     : ETMZpolo SN MELKSSAL
 DATA PATH      : C:\Users\kpodo\Documents\GitHub\ET_DSS_hist_Eunjin\TEST\
 TREATMENT  1   : ERiMA DCC1                MZCER047
  


!                                        INITIAL Year/Doy      FINAL Year/Doy
!                                                2013/165            2013/305
!SOIL N BALANCE                                 -----------kg N/ha-----------

!   Soil Humus N                                 18903.17            18784.28
!   Soil Litter N                                    0.00                4.05
!   N in Surface Residue                             0.00                0.00

!   Added to / Removed from Soil:
!   N in Harvest Residues from Previous Crop         0.00
!   N from Organic Applications                      0.00
!   N from senesced plant matter                     5.13
!   N immobilized                                    0.00
!   N mineralized                                                      119.98

!   Total N balance                              18908.31            18908.31
!   Balance                                                             0.004

!===============================================================================

*DSSAT Cropping System Model Ver. 4.7.5.008 -release  JAN 15, 2021 21:49:57

*RUN  24        : ERiMA DCC1                MZCER047 ETMZpolo    1
 MODEL          : MZCER047 - Maize
 EXPERIMENT     : ETMZpolo SN MELKSSAL
 DATA PATH      : C:\Users\kpodo\Documents\GitHub\ET_DSS_hist_Eunjin\TEST\
 TREATMENT  1   : ERiMA DCC1                MZCER047
  


!                                        INITIAL Year/Doy      FINAL Year/Doy
!                                                2014/165            2014/317
!SOIL N BALANCE                                 -----------kg N/ha-----------

!   Soil Humus N                                 18903.17            18775.37
!   Soil Litter N                                    0.00                4.67
!   N in Surface Residue                             0.00                0.00

!   Added to / Removed from Soil:
!   N in Harvest Residues from Previous Crop         0.00
!   N from Organic Applications                      0.00
!   N from senesced plant matter                     5.72
!   N immobilized                                    0.00
!   N mineralized                                                      128.86

!   Total N balance                              18908.89            18908.89
!   Balance                                                             0.002

!===============================================================================

*DSSAT Cropping System Model Ver. 4.7.5.008 -release  JAN 15, 2021 21:49:57

*RUN  25        : ERiMA DCC1                MZCER047 ETMZpolo    1
 MODEL          : MZCER047 - Maize
 EXPERIMENT     : ETMZpolo SN MELKSSAL
 DATA PATH      : C:\Users\kpodo\Documents\GitHub\ET_DSS_hist_Eunjin\TEST\
 TREATMENT  1   : ERiMA DCC1                MZCER047
  


!                                        INITIAL Year/Doy      FINAL Year/Doy
!                                                2015/165            2015/301
!SOIL N BALANCE                                 -----------kg N/ha-----------

!   Soil Humus N                                 18903.17            18787.02
!   Soil Litter N                                    0.00                3.66
!   N in Surface Residue                             0.00                0.00

!   Added to / Removed from Soil:
!   N in Harvest Residues from Previous Crop         0.00
!   N from Organic Applications                      0.00
!   N from senesced plant matter                     4.27
!   N immobilized                                    0.00
!   N mineralized                                                      116.76

!   Total N balance                              18907.44            18907.44
!   Balance                                                             0.000

!===============================================================================

*DSSAT Cropping System Model Ver. 4.7.5.008 -release  JAN 15, 2021 21:49:57

*RUN  26        : ERiMA DCC1                MZCER047 ETMZpolo    1
 MODEL          : MZCER047 - Maize
 EXPERIMENT     : ETMZpolo SN MELKSSAL
 DATA PATH      : C:\Users\kpodo\Documents\GitHub\ET_DSS_hist_Eunjin\TEST\
 TREATMENT  1   : ERiMA DCC1                MZCER047
  


!                                        INITIAL Year/Doy      FINAL Year/Doy
!                                                2016/165            2016/296
!SOIL N BALANCE                                 -----------kg N/ha-----------

!   Soil Humus N                                 18903.17            18792.85
!   Soil Litter N                                    0.00                2.73
!   N in Surface Residue                             0.00                0.00

!   Added to / Removed from Soil:
!   N in Harvest Residues from Previous Crop         0.00
!   N from Organic Applications                      0.00
!   N from senesced plant matter                     3.01
!   N immobilized                                    0.00
!   N mineralized                                                      110.60

!   Total N balance                              18906.18            18906.18
!   Balance                                                             0.002

!===============================================================================

*DSSAT Cropping System Model Ver. 4.7.5.008 -release  JAN 15, 2021 21:49:57

*RUN  27        : ERiMA DCC1                MZCER047 ETMZpolo    1
 MODEL          : MZCER047 - Maize
 EXPERIMENT     : ETMZpolo SN MELKSSAL
 DATA PATH      : C:\Users\kpodo\Documents\GitHub\ET_DSS_hist_Eunjin\TEST\
 TREATMENT  1   : ERiMA DCC1                MZCER047
  


!                                        INITIAL Year/Doy      FINAL Year/Doy
!                                                2017/165            2017/309
!SOIL N BALANCE                                 -----------kg N/ha-----------

!   Soil Humus N                                 18903.17            18777.29
!   Soil Litter N                                    0.00                3.70
!   N in Surface Residue                             0.00                0.00

!   Added to / Removed from Soil:
!   N in Harvest Residues from Previous Crop         0.00
!   N from Organic Applications                      0.00
!   N from senesced plant matter                     4.62
!   N immobilized                                    0.00
!   N mineralized                                                      126.80

!   Total N balance                              18907.79            18907.79
!   Balance                                                             0.002

!===============================================================================

*DSSAT Cropping System Model Ver. 4.7.5.008 -release  JAN 15, 2021 21:49:57

*RUN  28        : ERiMA DCC1                MZCER047 ETMZpolo    1
 MODEL          : MZCER047 - Maize
 EXPERIMENT     : ETMZpolo SN MELKSSAL
 DATA PATH      : C:\Users\kpodo\Documents\GitHub\ET_DSS_hist_Eunjin\TEST\
 TREATMENT  1   : ERiMA DCC1                MZCER047
  


!                                        INITIAL Year/Doy      FINAL Year/Doy
!                                                2018/165            2018/298
!SOIL N BALANCE                                 -----------kg N/ha-----------

!   Soil Humus N                                 18903.17            18791.50
!   Soil Litter N                                    0.00                3.44
!   N in Surface Residue                             0.00                0.00

!   Added to / Removed from Soil:
!   N in Harvest Residues from Previous Crop         0.00
!   N from Organic Applications                      0.00
!   N from senesced plant matter                     4.14
!   N immobilized                                    0.00
!   N mineralized                                                      112.37

!   Total N balance                              18907.31            18907.31
!   Balance                                                             0.000
