*Soil Organic Matter daily output file

*DSSAT Cropping System Model Ver. 4.7.5.008 -release  JAN 15, 2021 21:49:57

*RUN   1        : ERiMA DCC1                MZCER047 ETMZpolo    1
 MODEL          : MZCER047 - Maize
 EXPERIMENT     : ETMZpolo SN MELKSSAL
 DATA PATH      : C:\Users\kpodo\Documents\GitHub\ET_DSS_hist_Eunjin\TEST\
 TREATMENT  1   : ERiMA DCC1                MZCER047
  
@YEAR DOY   DAS    OMAC    SCDD    SOCD    SC0D    SCTD   SOMCT    LCTD    ONAC    SNDD    SOND    SN0D    SNTD   SOMNT    LNTD
 1991 164     0       0   15750  272505       0  272505  272505     0.0    0.00  1454.1 18903.2    0.00 18903.2 18903.2    0.00
 1991 165     1       0   15749  272491       0  272491  272491     0.0    0.00  1454.1 18902.2    0.00 18902.2 18902.2    0.00
 1991 166     2       0   15748  272476       0  272476  272476     0.0    0.00  1454.0 18901.1    0.00 18901.1 18901.1    0.00
 1991 167     3       0   15747  272461       0  272461  272461     0.0    0.00  1453.9 18900.1    0.00 18900.1 18900.1    0.00
 1991 168     4       0   15746  272445       0  272445  272445     0.0    0.00  1453.8 18899.0    0.00 18899.0 18899.0    0.00
 1991 169     5       0   15745  272429       0  272429  272429     0.0    0.00  1453.7 18897.9    0.00 18897.9 18897.9    0.00
 1991 170     6       0   15744  272412       0  272412  272412     0.0    0.00  1453.6 18896.7    0.00 18896.7 18896.7    0.00
 1991 171     7       0   15743  272396       0  272396  272396     0.0    0.00  1453.5 18895.6    0.00 18895.6 18895.6    0.00
 1991 172     8       0   15742  272380       0  272380  272380     0.0    0.00  1453.4 18894.4    0.00 18894.4 18894.4    0.00
 1991 173     9       0   15741  272365       0  272365  272365     0.0    0.00  1453.3 18893.4    0.00 18893.4 18893.4    0.00
 1991 174    10       0   15740  272349       0  272349  272349     0.0    0.00  1453.2 18892.3    0.00 18892.3 18892.3    0.00
 1991 175    11       0   15739  272334       0  272334  272334     0.0    0.00  1453.1 18891.2    0.00 18891.2 18891.2    0.00
 1991 176    12       0   15738  272319       0  272319  272319     0.0    0.00  1453.1 18890.2    0.00 18890.2 18890.2    0.00
 1991 177    13       0   15737  272304       0  272304  272304     0.0    0.00  1453.0 18889.1    0.00 18889.1 18889.1    0.00
 1991 178    14       0   15736  272289       0  272289  272289     0.0    0.00  1452.9 18888.1    0.00 18888.1 18888.1    0.00
 1991 179    15       0   15735  272274       0  272274  272274     0.0    0.00  1452.8 18887.0    0.00 18887.0 18887.0    0.00
 1991 180    16       0   15735  272259       0  272259  272259     0.1    0.00  1452.7 18886.0    0.00 18886.0 18886.0    0.00
 1991 181    17       0   15734  272245       0  272245  272245     0.1    0.00  1452.7 18885.1    0.00 18885.1 18885.1    0.00
 1991 182    18       0   15733  272232       0  272232  272231     0.2    0.00  1452.6 18884.1    0.00 18884.1 18884.1    0.01
 1991 183    19       0   15732  272218       0  272218  272217     0.2    0.00  1452.5 18883.1    0.00 18883.1 18883.1    0.01
 1991 184    20       0   15731  272204       0  272204  272204     0.3    0.00  1452.4 18882.2    0.00 18882.2 18882.2    0.01
 1991 185    21       0   15730  272190       0  272190  272190     0.4    0.00  1452.3 18881.2    0.00 18881.2 18881.2    0.01
 1991 186    22       0   15730  272177       0  272177  272176     0.5    0.00  1452.3 18880.3    0.00 18880.3 18880.3    0.02
 1991 187    23       0   15729  272163       0  272163  272162     0.6    0.00  1452.2 18879.3    0.00 18879.3 18879.3    0.02
 1991 188    24       0   15728  272149       0  272149  272148     0.7    0.00  1452.1 18878.3    0.00 18878.3 18878.3    0.02
 1991 189    25       0   15727  272135       0  272135  272134     0.8    0.00  1452.0 18877.4    0.00 18877.4 18877.3    0.03
 1991 190    26       0   15726  272121       0  272121  272120     1.0    0.00  1451.9 18876.4    0.00 18876.4 18876.4    0.03
 1991 191    27       0   15725  272108       0  272108  272106     1.2    0.00  1451.9 18875.4    0.00 18875.4 18875.4    0.04
 1991 192    28       0   15724  272094       0  272094  272092     1.4    0.00  1451.8 18874.5    0.00 18874.5 18874.4    0.05
 1991 193    29       0   15724  272080       0  272080  272079     1.6    0.00  1451.7 18873.5    0.00 18873.5 18873.5    0.05
 1991 194    30       0   15723  272067       0  272067  272065     1.9    0.00  1451.6 18872.6    0.00 18872.6 18872.5    0.06
 1991 195    31       0   15722  272054       0  272054  272051     2.2    0.00  1451.5 18871.6    0.00 18871.6 18871.6    0.07
 1991 196    32       0   15721  272041       0  272041  272038     2.6    0.00  1451.5 18870.7    0.00 18870.7 18870.6    0.09
 1991 197    33       0   15720  272028       0  272028  272025     3.0    0.00  1451.4 18869.8    0.00 18869.8 18869.7    0.10
 1991 198    34       0   15719  272015       0  272015  272012     3.5    0.00  1451.3 18868.9    0.00 18868.9 18868.8    0.12
 1991 199    35       0   15719  272003       0  272003  271999     4.0    0.00  1451.3 18868.1    0.00 18868.1 18867.9    0.13
 1991 200    36       0   15718  271991       0  271991  271986     4.7    0.00  1451.2 18867.2    0.00 18867.2 18867.0    0.15
 1991 201    37       0   15717  271979       0  271979  271973     5.3    0.00  1451.1 18866.3    0.00 18866.3 18866.2    0.17
 1991 202    38       0   15716  271967       0  271967  271961     6.0    0.00  1451.1 18865.5    0.00 18865.5 18865.3    0.20
 1991 203    39       0   15716  271954       0  271954  271947     6.7    0.00  1451.0 18864.6    0.00 18864.6 18864.3    0.22
 1991 204    40       0   15715  271942       0  271942  271934     7.4    0.00  1450.9 18863.7    0.00 18863.7 18863.4    0.24
 1991 205    41       0   15714  271930       0  271930  271921     8.3    0.00  1450.9 18862.8    0.00 18862.8 18862.6    0.27
 1991 206    42       0   15714  271918       0  271918  271909     9.2    0.00  1450.8 18862.0    0.00 18862.0 18861.7    0.29
 1991 207    43       0   15713  271906       0  271906  271896    10.1    0.00  1450.8 18861.1    0.00 18861.1 18860.8    0.32
 1991 208    44       0   15712  271893       0  271893  271882    10.8    0.00  1450.7 18860.2    0.00 18860.2 18859.8    0.35
 1991 209    45       0   15712  271880       0  271880  271868    11.6    0.00  1450.6 18859.3    0.00 18859.3 18858.9    0.38
 1991 210    46       0   15711  271867       0  271867  271855    12.2    0.00  1450.5 18858.3    0.00 18858.3 18857.9    0.40
 1991 211    47       0   15710  271854       0  271854  271841    13.0    0.00  1450.5 18857.4    0.00 18857.4 18857.0    0.43
 1991 212    48       0   15709  271841       0  271841  271828    13.8    0.00  1450.4 18856.5    0.00 18856.5 18856.1    0.45
 1991 213    49       0   15708  271829       0  271829  271815    14.6    0.00  1450.3 18855.7    0.00 18855.7 18855.2    0.48
 1991 214    50       0   15708  271817       0  271817  271801    15.4    0.00  1450.2 18854.8    0.00 18854.8 18854.3    0.51
 1991 215    51       0   15707  271804       0  271804  271788    16.3    0.00  1450.2 18853.9    0.00 18853.9 18853.3    0.55
 1991 216    52       0   15706  271792       0  271792  271774    17.3    0.00  1450.1 18853.0    0.00 18853.0 18852.4    0.58
 1991 217    53       0   15705  271779       0  271779  271761    18.4    0.00  1450.0 18852.1    0.00 18852.1 18851.4    0.62
 1991 218    54       0   15704  271767       0  271767  271747    19.4    0.00  1449.9 18851.1    0.00 18851.1 18850.5    0.65
 1991 219    55       0   15704  271754       0  271754  271734    20.3    0.00  1449.9 18850.2    0.00 18850.2 18849.5    0.68
 1991 220    56       0   15703  271741       0  271741  271720    21.2    0.00  1449.8 18849.3    0.00 18849.3 18848.6    0.71
 1991 221    57       0   15702  271729       0  271729  271707    22.1    0.00  1449.7 18848.4    0.00 18848.4 18847.7    0.74
 1991 222    58       0   15701  271717       0  271717  271694    23.0    0.00  1449.6 18847.5    0.00 18847.5 18846.8    0.77
 1991 223    59       0   15700  271704       0  271704  271680    23.9    0.00  1449.6 18846.7    0.00 18846.7 18845.9    0.80
 1991 224    60       0   15700  271692       0  271692  271667    24.8    0.00  1449.5 18845.8    0.00 18845.8 18844.9    0.83
 1991 225    61       0   15699  271680       0  271680  271654    25.8    0.00  1449.4 18844.9    0.00 18844.9 18844.0    0.86
 1991 226    62       0   15698  271668       0  271668  271641    26.8    0.00  1449.4 18844.0    0.00 18844.0 18843.1    0.89
 1991 227    63       0   15697  271655       0  271655  271627    28.0    0.00  1449.3 18843.1    0.00 18843.1 18842.2    0.93
 1991 228    64       0   15697  271643       0  271643  271614    29.1    0.00  1449.2 18842.2    0.00 18842.2 18841.2    0.96
 1991 229    65       0   15696  271631       0  271631  271601    30.2    0.00  1449.2 18841.3    0.00 18841.3 18840.3    0.99
 1991 230    66       0   15695  271619       0  271619  271587    31.2    0.00  1449.1 18840.4    0.00 18840.4 18839.4    1.01
 1991 231    67       0   15694  271606       0  271606  271574    32.2    0.00  1449.0 18839.5    0.00 18839.5 18838.5    1.04
 1991 232    68       0   15694  271594       0  271594  271561    33.2    0.00  1448.9 18838.6    0.00 18838.6 18837.6    1.07
 1991 233    69       0   15693  271581       0  271581  271547    34.2    0.00  1448.9 18837.7    0.00 18837.7 18836.6    1.10
 1991 234    70       0   15692  271568       0  271568  271533    35.1    0.00  1448.8 18836.8    0.00 18836.8 18835.6    1.13
 1991 235    71       0   15691  271555       0  271555  271519    36.1    0.00  1448.7 18835.8    0.00 18835.8 18834.7    1.16
 1991 236    72       0   15690  271543       0  271543  271506    37.3    0.00  1448.6 18834.9    0.00 18834.9 18833.7    1.19
 1991 237    73       0   15689  271531       0  271531  271492    38.5    0.00  1448.6 18834.0    0.00 18834.0 18832.8    1.22
 1991 238    74       0   15689  271518       0  271518  271479    39.5    0.00  1448.5 18833.1    0.00 18833.1 18831.9    1.25
 1991 239    75       0   15688  271506       0  271506  271466    40.6    0.00  1448.4 18832.2    0.00 18832.2 18831.0    1.28
 1991 240    76       0   15687  271494       0  271494  271452    41.7    0.00  1448.3 18831.3    0.00 18831.3 18830.0    1.31
 1991 241    77       0   15686  271481       0  271481  271439    42.9    0.00  1448.3 18830.4    0.00 18830.4 18829.1    1.34
 1991 242    78       0   15686  271469       0  271469  271425    44.1    0.00  1448.2 18829.5    0.00 18829.5 18828.2    1.37
 1991 243    79       0   15685  271457       0  271457  271411    45.3    0.00  1448.1 18828.6    0.00 18828.6 18827.2    1.41
 1991 244    80       0   15684  271444       0  271444  271398    46.6    0.00  1448.1 18827.7    0.00 18827.7 18826.3    1.44
 1991 245    81       0   15683  271431       0  271431  271384    47.6    0.00  1448.0 18826.8    0.00 18826.8 18825.3    1.47
 1991 246    82       0   15683  271418       0  271418  271370    48.4    0.00  1447.9 18825.8    0.00 18825.8 18824.3    1.50
 1991 247    83       0   15682  271405       0  271405  271355    49.2    0.00  1447.8 18824.9    0.00 18824.9 18823.3    1.53
 1991 248    84       0   15681  271391       0  271391  271341    50.1    0.00  1447.8 18823.9    0.00 18823.9 18822.3    1.56
 1991 249    85       0   15680  271378       0  271378  271327    51.2    0.00  1447.7 18823.0    0.00 18823.0 18821.4    1.59
 1991 250    86       0   15679  271365       0  271365  271313    52.3    0.00  1447.6 18822.0    0.00 18822.0 18820.4    1.63
 1991 251    87       0   15679  271352       0  271352  271299    53.6    0.00  1447.5 18821.1    0.00 18821.1 18819.4    1.66
 1991 252    88       0   15678  271340       0  271340  271284    55.1    0.00  1447.5 18820.1    0.00 18820.1 18818.4    1.70
 1991 253    89       0   15677  271327       0  271327  271271    56.7    0.00  1447.4 18819.2    0.00 18819.2 18817.5    1.74
 1991 254    90       0   15677  271315       0  271315  271257    58.5    0.00  1447.4 18818.3    0.00 18818.3 18816.6    1.78
 1991 255    91       0   15676  271302       0  271302  271243    59.8    0.00  1447.3 18817.4    0.00 18817.4 18815.6    1.81
 1991 256    92       0   15675  271290       0  271290  271228    61.1    0.00  1447.2 18816.4    0.00 18816.4 18814.6    1.85
 1991 257    93       0   15674  271276       0  271276  271214    62.3    0.00  1447.1 18815.5    0.00 18815.5 18813.6    1.88
 1991 258    94       0   15673  271263       0  271263  271200    63.5    0.00  1447.0 18814.5    0.00 18814.5 18812.6    1.92
 1991 259    95       0   15672  271251       0  271251  271186    64.9    0.00  1447.0 18813.6    0.00 18813.6 18811.6    1.95
 1991 260    96       0   15671  271238       0  271238  271172    66.6    0.00  1446.9 18812.6    0.00 18812.6 18810.6    1.99
 1991 261    97       0   15670  271226       0  271226  271157    68.5    0.00  1446.8 18811.7    0.00 18811.7 18809.7    2.04
 1991 262    98       0   15670  271214       0  271214  271144    70.6    0.00  1446.7 18810.8    0.00 18810.8 18808.7    2.08
 1991 263    99       0   15669  271203       0  271203  271130    72.9    0.00  1446.7 18809.9    0.00 18809.9 18807.8    2.13
 1991 264   100       0   15668  271193       0  271193  271118    75.4    0.00  1446.6 18809.1    0.00 18809.1 18806.9    2.18
 1991 265   101       0   15668  271183       0  271183  271105    78.1    0.00  1446.5 18808.3    0.00 18808.3 18806.1    2.24
 1991 266   102       0   15667  271174       0  271174  271093    81.0    0.00  1446.5 18807.6    0.00 18807.6 18805.3    2.29
 1991 267   103       0   15667  271165       0  271165  271081    84.0    0.00  1446.4 18806.8    0.00 18806.8 18804.5    2.35
 1991 268   104       0   15666  271157       0  271157  271070    87.2    0.00  1446.4 18806.1    0.00 18806.1 18803.7    2.41
 1991 269   105       0   15666  271150       0  271150  271059    90.6    0.00  1446.4 18805.4    0.00 18805.4 18803.0    2.47
 1991 270   106       0   15665  271143       0  271143  271048    94.3    0.00  1446.3 18804.8    0.00 18804.8 18802.3    2.54
 1991 271   107       0   15665  271136       0  271136  271038    98.0    0.00  1446.3 18804.2    0.00 18804.2 18801.6    2.60
 1991 272   108       0   15665  271129       0  271129  271028   101.8    0.00  1446.3 18803.6    0.00 18803.6 18800.9    2.67
 1991 273   109       0   15664  271123       0  271123  271017   105.6    0.00  1446.3 18802.9    0.00 18802.9 18800.2    2.74
 1991 274   110       0   15664  271117       0  271117  271007   109.5    0.00  1446.2 18802.3    0.00 18802.3 18799.5    2.80
 1991 275   111       0   15664  271110       0  271110  270996   113.4    0.00  1446.2 18801.7    0.00 18801.7 18798.8    2.87
 1991 276   112       0   15664  271103       0  271103  270986   117.3    0.00  1446.2 18801.1    0.00 18801.1 18798.1    2.94
 1991 277   113       0   15663  271096       0  271096  270975   121.3    0.00  1446.2 18800.4    0.00 18800.4 18797.4    3.01
 1991 278   114       0   15663  271088       0  271088  270963   125.2    0.00  1446.1 18799.7    0.00 18799.7 18796.6    3.07
 1991 279   115       0   15663  271081       0  271081  270952   129.1    0.00  1446.1 18799.1    0.00 18799.1 18795.9    3.14
 1991 280   116       0   15663  271074       0  271074  270941   132.7    0.00  1446.1 18798.4    0.00 18798.4 18795.2    3.21
 1991 281   117       0   15662  271066       0  271066  270930   136.4    0.00  1446.1 18797.7    0.00 18797.7 18794.4    3.28
 1991 282   118       0   15662  271059       0  271059  270919   140.1    0.00  1446.0 18797.1    0.00 18797.1 18793.7    3.34
 1991 283   119       0   15662  271052       0  271052  270909   143.8    0.00  1446.0 18796.4    0.00 18796.4 18793.0    3.41
 1991 284   120       0   15662  271042       0  271042  270898   143.7    0.00  1446.0 18795.7    0.00 18795.7 18792.3    3.41
 1991 285   121       0   15661  271031       0  271031  270887   143.6    0.00  1446.0 18795.0    0.00 18795.0 18791.6    3.41
 1991 286   122       0   15661  271020       0  271020  270876   143.5    0.00  1445.9 18794.3    0.00 18794.3 18790.9    3.41
 1991 287   123       0   15661  271009       0  271009  270866   143.5    0.00  1445.9 18793.6    0.00 18793.6 18790.2    3.41
 1991 288   124       0   15661  270999       0  270999  270855   143.5    0.00  1445.9 18792.9    0.00 18792.9 18789.5    3.41
 1991 289   125       0   15660  270989       0  270989  270845   143.5    0.00  1445.9 18792.3    0.00 18792.3 18788.8    3.41
 1991 290   126       0   15660  270978       0  270978  270835   143.5    0.00  1445.8 18791.6    0.00 18791.6 18788.2    3.41
 1991 291   127       0   15660  270968       0  270968  270825   143.5    0.00  1445.8 18790.9    0.00 18790.9 18787.5    3.41
 1991 292   128       0   15660  270958       0  270958  270815   143.5    0.00  1445.8 18790.2    0.00 18790.2 18786.8    3.41

*DSSAT Cropping System Model Ver. 4.7.5.008 -release  JAN 15, 2021 21:49:57

*RUN   2        : ERiMA DCC1                MZCER047 ETMZpolo    1
 MODEL          : MZCER047 - Maize
 EXPERIMENT     : ETMZpolo SN MELKSSAL
 DATA PATH      : C:\Users\kpodo\Documents\GitHub\ET_DSS_hist_Eunjin\TEST\
 TREATMENT  1   : ERiMA DCC1                MZCER047
  
@YEAR DOY   DAS    OMAC    SCDD    SOCD    SC0D    SCTD   SOMCT    LCTD    ONAC    SNDD    SOND    SN0D    SNTD   SOMNT    LNTD
 1992 164     0       0   15750  272505       0  272505  272505     0.0    0.00  1454.1 18903.2    0.00 18903.2 18903.2    0.00
 1992 165     1       0   15749  272490       0  272490  272490     0.0    0.00  1454.1 18902.1    0.00 18902.1 18902.1    0.00
 1992 166     2       0   15748  272474       0  272474  272474     0.0    0.00  1454.0 18901.0    0.00 18901.0 18901.0    0.00
 1992 167     3       0   15747  272459       0  272459  272459     0.0    0.00  1453.9 18900.0    0.00 18900.0 18900.0    0.00
 1992 168     4       0   15746  272444       0  272444  272444     0.0    0.00  1453.8 18898.9    0.00 18898.9 18898.9    0.00
 1992 169     5       0   15745  272428       0  272428  272428     0.0    0.00  1453.7 18897.8    0.00 18897.8 18897.8    0.00
 1992 170     6       0   15744  272412       0  272412  272412     0.0    0.00  1453.6 18896.7    0.00 18896.7 18896.7    0.00
 1992 171     7       0   15743  272397       0  272397  272397     0.0    0.00  1453.5 18895.6    0.00 18895.6 18895.6    0.00
 1992 172     8       0   15742  272381       0  272381  272381     0.0    0.00  1453.4 18894.5    0.00 18894.5 18894.5    0.00
 1992 173     9       0   15741  272365       0  272365  272365     0.0    0.00  1453.3 18893.4    0.00 18893.4 18893.4    0.00
 1992 174    10       0   15740  272349       0  272349  272349     0.0    0.00  1453.2 18892.3    0.00 18892.3 18892.3    0.00
 1992 175    11       0   15739  272334       0  272334  272334     0.0    0.00  1453.1 18891.2    0.00 18891.2 18891.2    0.00
 1992 176    12       0   15738  272319       0  272319  272319     0.0    0.00  1453.0 18890.2    0.00 18890.2 18890.2    0.00
 1992 177    13       0   15737  272303       0  272303  272303     0.0    0.00  1453.0 18889.1    0.00 18889.1 18889.1    0.00
 1992 178    14       0   15736  272288       0  272288  272288     0.0    0.00  1452.9 18888.0    0.00 18888.0 18888.0    0.00
 1992 179    15       0   15735  272273       0  272273  272273     0.1    0.00  1452.8 18887.0    0.00 18887.0 18887.0    0.00
 1992 180    16       0   15734  272258       0  272258  272258     0.1    0.00  1452.7 18885.9    0.00 18885.9 18885.9    0.00
 1992 181    17       0   15733  272243       0  272243  272242     0.2    0.00  1452.6 18884.8    0.00 18884.8 18884.8    0.00
 1992 182    18       0   15732  272228       0  272228  272228     0.2    0.00  1452.5 18883.8    0.00 18883.8 18883.8    0.01
 1992 183    19       0   15731  272214       0  272214  272214     0.3    0.00  1452.4 18882.8    0.00 18882.8 18882.8    0.01
 1992 184    20       0   15731  272200       0  272200  272200     0.3    0.00  1452.4 18881.9    0.00 18881.9 18881.9    0.01
 1992 185    21       0   15730  272186       0  272186  272186     0.4    0.00  1452.3 18880.9    0.00 18880.9 18880.9    0.02
 1992 186    22       0   15729  272172       0  272172  272171     0.5    0.00  1452.2 18879.9    0.00 18879.9 18879.9    0.02
 1992 187    23       0   15728  272158       0  272158  272157     0.7    0.00  1452.1 18878.9    0.00 18878.9 18878.9    0.02
 1992 188    24       0   15727  272143       0  272143  272142     0.8    0.00  1452.0 18877.9    0.00 18877.9 18877.9    0.03
 1992 189    25       0   15726  272129       0  272129  272128     1.0    0.00  1451.9 18876.9    0.00 18876.9 18876.8    0.03
 1992 190    26       0   15725  272114       0  272114  272113     1.2    0.00  1451.9 18875.9    0.00 18875.9 18875.8    0.04
 1992 191    27       0   15724  272100       0  272100  272098     1.4    0.00  1451.8 18874.9    0.00 18874.9 18874.8    0.05
 1992 192    28       0   15724  272086       0  272086  272084     1.6    0.00  1451.7 18873.9    0.00 18873.9 18873.8    0.05
 1992 193    29       0   15723  272072       0  272072  272070     1.9    0.00  1451.7 18872.9    0.00 18872.9 18872.8    0.06
 1992 194    30       0   15722  272058       0  272058  272056     2.3    0.00  1451.6 18871.9    0.00 18871.9 18871.9    0.08
 1992 195    31       0   15722  272044       0  272044  272042     2.6    0.00  1451.5 18871.0    0.00 18871.0 18870.9    0.09
 1992 196    32       0   15721  272031       0  272031  272028     3.1    0.00  1451.5 18870.1    0.00 18870.1 18869.9    0.10
 1992 197    33       0   15720  272018       0  272018  272014     3.6    0.00  1451.4 18869.1    0.00 18869.1 18869.0    0.12
 1992 198    34       0   15719  272005       0  272005  272000     4.2    0.00  1451.3 18868.2    0.00 18868.2 18868.0    0.14
 1992 199    35       0   15718  271992       0  271992  271987     4.8    0.00  1451.2 18867.3    0.00 18867.3 18867.1    0.16
 1992 200    36       0   15718  271979       0  271979  271973     5.6    0.00  1451.1 18866.3    0.00 18866.3 18866.2    0.18
 1992 201    37       0   15717  271966       0  271966  271960     6.2    0.00  1451.1 18865.4    0.00 18865.4 18865.2    0.20
 1992 202    38       0   15716  271953       0  271953  271946     6.9    0.00  1451.0 18864.5    0.00 18864.5 18864.3    0.22
 1992 203    39       0   15715  271940       0  271940  271933     7.6    0.00  1450.9 18863.6    0.00 18863.6 18863.3    0.25
 1992 204    40       0   15714  271928       0  271928  271919     8.4    0.00  1450.8 18862.7    0.00 18862.7 18862.4    0.27
 1992 205    41       0   15713  271915       0  271915  271906     9.2    0.00  1450.8 18861.8    0.00 18861.8 18861.5    0.29
 1992 206    42       0   15713  271903       0  271903  271893     9.9    0.00  1450.7 18860.9    0.00 18860.9 18860.6    0.32
 1992 207    43       0   15712  271890       0  271890  271879    10.7    0.00  1450.6 18860.0    0.00 18860.0 18859.6    0.35
 1992 208    44       0   15711  271877       0  271877  271865    11.3    0.00  1450.5 18859.0    0.00 18859.0 18858.7    0.37
 1992 209    45       0   15710  271863       0  271863  271851    12.0    0.00  1450.5 18858.1    0.00 18858.1 18857.7    0.40
 1992 210    46       0   15709  271850       0  271850  271837    12.7    0.00  1450.4 18857.1    0.00 18857.1 18856.7    0.42
 1992 211    47       0   15708  271837       0  271837  271824    13.4    0.00  1450.3 18856.2    0.00 18856.2 18855.8    0.44
 1992 212    48       0   15708  271824       0  271824  271810    14.1    0.00  1450.2 18855.3    0.00 18855.3 18854.8    0.47
 1992 213    49       0   15707  271811       0  271811  271796    15.0    0.00  1450.2 18854.4    0.00 18854.4 18853.9    0.49
 1992 214    50       0   15706  271799       0  271799  271783    15.9    0.00  1450.1 18853.5    0.00 18853.5 18852.9    0.52
 1992 215    51       0   15705  271786       0  271786  271769    16.8    0.00  1450.0 18852.6    0.00 18852.6 18852.0    0.55
 1992 216    52       0   15705  271774       0  271774  271756    17.8    0.00  1450.0 18851.7    0.00 18851.7 18851.1    0.58
 1992 217    53       0   15704  271761       0  271761  271743    18.6    0.00  1449.9 18850.7    0.00 18850.7 18850.1    0.61
 1992 218    54       0   15703  271749       0  271749  271729    19.4    0.00  1449.8 18849.9    0.00 18849.9 18849.2    0.64
 1992 219    55       0   15702  271736       0  271736  271716    20.2    0.00  1449.7 18849.0    0.00 18849.0 18848.3    0.67
 1992 220    56       0   15702  271724       0  271724  271703    20.9    0.00  1449.7 18848.1    0.00 18848.1 18847.4    0.69
 1992 221    57       0   15701  271711       0  271711  271689    21.7    0.00  1449.6 18847.2    0.00 18847.2 18846.4    0.72
 1992 222    58       0   15700  271698       0  271698  271676    22.5    0.00  1449.5 18846.3    0.00 18846.3 18845.5    0.74
 1992 223    59       0   15699  271685       0  271685  271662    23.1    0.00  1449.4 18845.3    0.00 18845.3 18844.6    0.77
 1992 224    60       0   15698  271672       0  271672  271648    23.8    0.00  1449.4 18844.4    0.00 18844.4 18843.6    0.79
 1992 225    61       0   15698  271660       0  271660  271635    24.5    0.00  1449.3 18843.5    0.00 18843.5 18842.7    0.82
 1992 226    62       0   15697  271647       0  271647  271622    25.4    0.00  1449.2 18842.6    0.00 18842.6 18841.8    0.84
 1992 227    63       0   15696  271635       0  271635  271609    26.1    0.00  1449.2 18841.7    0.00 18841.7 18840.9    0.87
 1992 228    64       0   15695  271623       0  271623  271596    26.8    0.00  1449.1 18840.9    0.00 18840.9 18840.0    0.89
 1992 229    65       0   15695  271611       0  271611  271583    27.5    0.00  1449.0 18840.0    0.00 18840.0 18839.1    0.92
 1992 230    66       0   15694  271599       0  271599  271571    28.3    0.00  1449.0 18839.2    0.00 18839.2 18838.2    0.94
 1992 231    67       0   15693  271587       0  271587  271558    29.1    0.00  1448.9 18838.3    0.00 18838.3 18837.3    0.96
 1992 232    68       0   15692  271575       0  271575  271546    30.0    0.00  1448.8 18837.5    0.00 18837.5 18836.5    0.99
 1992 233    69       0   15692  271564       0  271564  271533    30.8    0.00  1448.8 18836.6    0.00 18836.6 18835.6    1.01
 1992 234    70       0   15691  271552       0  271552  271520    31.6    0.00  1448.7 18835.8    0.00 18835.8 18834.7    1.04
 1992 235    71       0   15690  271540       0  271540  271508    32.3    0.00  1448.6 18834.9    0.00 18834.9 18833.8    1.06
 1992 236    72       0   15689  271528       0  271528  271495    33.1    0.00  1448.6 18834.0    0.00 18834.0 18833.0    1.08
 1992 237    73       0   15689  271516       0  271516  271482    33.8    0.00  1448.5 18833.2    0.00 18833.2 18832.1    1.11
 1992 238    74       0   15688  271503       0  271503  271469    34.4    0.00  1448.4 18832.3    0.00 18832.3 18831.2    1.13
 1992 239    75       0   15687  271491       0  271491  271456    35.0    0.00  1448.3 18831.4    0.00 18831.4 18830.3    1.15
 1992 240    76       0   15686  271478       0  271478  271442    35.7    0.00  1448.3 18830.5    0.00 18830.5 18829.3    1.17
 1992 241    77       0   15686  271465       0  271465  271429    36.4    0.00  1448.2 18829.6    0.00 18829.6 18828.4    1.19
 1992 242    78       0   15685  271452       0  271452  271415    36.9    0.00  1448.1 18828.7    0.00 18828.7 18827.5    1.21
 1992 243    79       0   15684  271440       0  271440  271402    37.5    0.00  1448.1 18827.8    0.00 18827.8 18826.5    1.23
 1992 244    80       0   15683  271427       0  271427  271389    38.2    0.00  1448.0 18826.9    0.00 18826.9 18825.6    1.26
 1992 245    81       0   15682  271415       0  271415  271376    38.8    0.00  1447.9 18826.0    0.00 18826.0 18824.7    1.28
 1992 246    82       0   15682  271402       0  271402  271363    39.4    0.00  1447.8 18825.1    0.00 18825.1 18823.8    1.30
 1992 247    83       0   15681  271390       0  271390  271350    40.1    0.00  1447.8 18824.3    0.00 18824.3 18822.9    1.32
 1992 248    84       0   15680  271378       0  271378  271337    40.8    0.00  1447.7 18823.4    0.00 18823.4 18822.0    1.34
 1992 249    85       0   15680  271366       0  271366  271324    41.7    0.00  1447.6 18822.5    0.00 18822.5 18821.1    1.37
 1992 250    86       0   15679  271354       0  271354  271311    42.7    0.00  1447.6 18821.7    0.00 18821.7 18820.3    1.39
 1992 251    87       0   15678  271342       0  271342  271298    43.5    0.00  1447.5 18820.8    0.00 18820.8 18819.4    1.42
 1992 252    88       0   15677  271330       0  271330  271285    44.3    0.00  1447.4 18819.9    0.00 18819.9 18818.5    1.44
 1992 253    89       0   15677  271318       0  271318  271272    45.1    0.00  1447.4 18819.0    0.00 18819.0 18817.6    1.46
 1992 254    90       0   15676  271305       0  271305  271259    45.9    0.00  1447.3 18818.2    0.00 18818.2 18816.7    1.49
 1992 255    91       0   15675  271293       0  271293  271246    46.7    0.00  1447.2 18817.3    0.00 18817.3 18815.8    1.51
 1992 256    92       0   15674  271281       0  271281  271234    47.6    0.00  1447.2 18816.4    0.00 18816.4 18814.9    1.53
 1992 257    93       0   15674  271269       0  271269  271220    48.6    0.00  1447.1 18815.5    0.00 18815.5 18814.0    1.56
 1992 258    94       0   15673  271257       0  271257  271207    49.7    0.00  1447.0 18814.6    0.00 18814.6 18813.0    1.59
 1992 259    95       0   15672  271245       0  271245  271194    51.0    0.00  1447.0 18813.8    0.00 18813.8 18812.1    1.62
 1992 260    96       0   15672  271233       0  271233  271181    52.4    0.00  1446.9 18812.9    0.00 18812.9 18811.2    1.65
 1992 261    97       0   15671  271222       0  271222  271168    53.9    0.00  1446.9 18812.0    0.00 18812.0 18810.4    1.68
 1992 262    98       0   15670  271211       0  271211  271156    55.6    0.00  1446.8 18811.2    0.00 18811.2 18809.5    1.72
 1992 263    99       0   15670  271199       0  271199  271142    56.9    0.00  1446.7 18810.4    0.00 18810.4 18808.6    1.75
 1992 264   100       0   15669  271187       0  271187  271129    58.2    0.00  1446.7 18809.5    0.00 18809.5 18807.7    1.78
 1992 265   101       0   15668  271174       0  271174  271115    59.3    0.00  1446.6 18808.5    0.00 18808.5 18806.7    1.81
 1992 266   102       0   15667  271162       0  271162  271102    60.4    0.00  1446.5 18807.6    0.00 18807.6 18805.8    1.84
 1992 267   103       0   15667  271150       0  271150  271088    61.4    0.00  1446.4 18806.7    0.00 18806.7 18804.9    1.87
 1992 268   104       0   15666  271138       0  271138  271075    62.6    0.00  1446.4 18805.8    0.00 18805.8 18803.9    1.90
 1992 269   105       0   15665  271126       0  271126  271062    64.0    0.00  1446.3 18805.0    0.00 18805.0 18803.0    1.94
 1992 270   106       0   15664  271114       0  271114  271048    65.6    0.00  1446.2 18804.1    0.00 18804.1 18802.1    1.97
 1992 271   107       0   15664  271102       0  271102  271035    67.4    0.00  1446.2 18803.2    0.00 18803.2 18801.2    2.01
 1992 272   108       0   15663  271091       0  271091  271022    69.4    0.00  1446.1 18802.3    0.00 18802.3 18800.3    2.06
 1992 273   109       0   15662  271080       0  271080  271009    71.5    0.00  1446.1 18801.5    0.00 18801.5 18799.4    2.10
 1992 274   110       0   15662  271070       0  271070  270996    73.9    0.00  1446.0 18800.7    0.00 18800.7 18798.5    2.15
 1992 275   111       0   15661  271060       0  271060  270984    76.3    0.00  1446.0 18799.9    0.00 18799.9 18797.7    2.20
 1992 276   112       0   15661  271051       0  271051  270972    79.0    0.00  1445.9 18799.1    0.00 18799.1 18796.9    2.25
 1992 277   113       0   15661  271041       0  271041  270960    81.8    0.00  1445.9 18798.4    0.00 18798.4 18796.1    2.30
 1992 278   114       0   15660  271032       0  271032  270948    84.7    0.00  1445.9 18797.6    0.00 18797.6 18795.3    2.35
 1992 279   115       0   15660  271024       0  271024  270936    87.6    0.00  1445.8 18796.9    0.00 18796.9 18794.5    2.41
 1992 280   116       0   15659  271015       0  271015  270924    90.7    0.00  1445.8 18796.2    0.00 18796.2 18793.7    2.47
 1992 281   117       0   15659  271007       0  271007  270913    93.9    0.00  1445.8 18795.5    0.00 18795.5 18792.9    2.52
 1992 282   118       0   15659  270999       0  270999  270902    97.2    0.00  1445.7 18794.8    0.00 18794.8 18792.2    2.58
 1992 283   119       0   15658  270990       0  270990  270890    99.3    0.00  1445.6 18794.0    0.00 18794.0 18791.4    2.64
 1992 284   120       0   15657  270979       0  270979  270878   101.3    0.00  1445.6 18793.2    0.00 18793.2 18790.6    2.69
 1992 285   121       0   15656  270969       0  270969  270866   103.2    0.00  1445.5 18792.5    0.00 18792.5 18789.7    2.75
 1992 286   122       0   15655  270958       0  270958  270853   104.5    0.00  1445.4 18791.6    0.00 18791.6 18788.8    2.80
 1992 287   123       0   15655  270946       0  270946  270841   105.8    0.00  1445.4 18790.8    0.00 18790.8 18788.0    2.86
 1992 288   124       0   15654  270936       0  270936  270828   107.5    0.00  1445.3 18790.0    0.00 18790.0 18787.1    2.91
 1992 289   125       0   15653  270926       0  270926  270816   109.5    0.00  1445.2 18789.2    0.00 18789.2 18786.3    2.97
 1992 290   126       0   15652  270916       0  270916  270804   111.8    0.00  1445.2 18788.4    0.00 18788.4 18785.4    3.02
 1992 291   127       0   15652  270906       0  270906  270792   114.4    0.00  1445.1 18787.7    0.00 18787.7 18784.6    3.08
 1992 292   128       0   15651  270897       0  270897  270780   117.3    0.00  1445.0 18786.9    0.00 18786.9 18783.8    3.15
 1992 293   129       0   15651  270888       0  270888  270768   120.5    0.00  1445.0 18786.2    0.00 18786.2 18783.0    3.21
 1992 294   130       0   15650  270880       0  270880  270757   123.9    0.00  1444.9 18785.5    0.00 18785.5 18782.2    3.28
 1992 295   131       0   15650  270873       0  270873  270746   127.6    0.00  1444.9 18784.8    0.00 18784.8 18781.5    3.34
 1992 296   132       0   15649  270867       0  270867  270735   131.6    0.00  1444.9 18784.2    0.00 18784.2 18780.8    3.41
 1992 297   133       0   15649  270860       0  270860  270725   135.7    0.00  1444.8 18783.6    0.00 18783.6 18780.1    3.48
 1992 298   134       0   15649  270854       0  270854  270714   139.9    0.00  1444.8 18783.0    0.00 18783.0 18779.4    3.55
 1992 299   135       0   15649  270848       0  270848  270704   144.2    0.00  1444.8 18782.4    0.00 18782.4 18778.7    3.62
 1992 300   136       0   15648  270842       0  270842  270694   148.5    0.00  1444.8 18781.7    0.00 18781.7 18778.0    3.70
 1992 301   137       0   15648  270836       0  270836  270683   152.9    0.00  1444.8 18781.1    0.00 18781.1 18777.4    3.77
 1992 302   138       0   15648  270826       0  270826  270673   152.7    0.00  1444.7 18780.5    0.00 18780.5 18776.7    3.77
 1992 303   139       0   15648  270816       0  270816  270663   152.6    0.00  1444.7 18779.8    0.00 18779.8 18776.0    3.77
 1992 304   140       0   15647  270806       0  270806  270653   152.6    0.00  1444.7 18779.2    0.00 18779.2 18775.4    3.77
 1992 305   141       0   15647  270796       0  270796  270643   152.5    0.00  1444.7 18778.5    0.00 18778.5 18774.7    3.77

*DSSAT Cropping System Model Ver. 4.7.5.008 -release  JAN 15, 2021 21:49:57

*RUN   3        : ERiMA DCC1                MZCER047 ETMZpolo    1
 MODEL          : MZCER047 - Maize
 EXPERIMENT     : ETMZpolo SN MELKSSAL
 DATA PATH      : C:\Users\kpodo\Documents\GitHub\ET_DSS_hist_Eunjin\TEST\
 TREATMENT  1   : ERiMA DCC1                MZCER047
  
@YEAR DOY   DAS    OMAC    SCDD    SOCD    SC0D    SCTD   SOMCT    LCTD    ONAC    SNDD    SOND    SN0D    SNTD   SOMNT    LNTD
 1993 164     0       0   15750  272505       0  272505  272505     0.0    0.00  1454.1 18903.2    0.00 18903.2 18903.2    0.00
 1993 165     1       0   15749  272489       0  272489  272489     0.0    0.00  1454.0 18902.0    0.00 18902.0 18902.0    0.00
 1993 166     2       0   15748  272472       0  272472  272472     0.0    0.00  1453.9 18900.9    0.00 18900.9 18900.9    0.00
 1993 167     3       0   15747  272456       0  272456  272456     0.0    0.00  1453.8 18899.7    0.00 18899.7 18899.7    0.00
 1993 168     4       0   15746  272440       0  272440  272440     0.0    0.00  1453.8 18898.6    0.00 18898.6 18898.6    0.00
 1993 169     5       0   15745  272424       0  272424  272424     0.0    0.00  1453.7 18897.5    0.00 18897.5 18897.5    0.00
 1993 170     6       0   15744  272409       0  272409  272409     0.0    0.00  1453.6 18896.4    0.00 18896.4 18896.4    0.00
 1993 171     7       0   15743  272394       0  272394  272394     0.0    0.00  1453.5 18895.4    0.00 18895.4 18895.4    0.00
 1993 172     8       0   15742  272378       0  272378  272378     0.0    0.00  1453.4 18894.3    0.00 18894.3 18894.3    0.00
 1993 173     9       0   15741  272363       0  272363  272363     0.0    0.00  1453.3 18893.3    0.00 18893.3 18893.3    0.00
 1993 174    10       0   15740  272348       0  272348  272348     0.0    0.00  1453.2 18892.2    0.00 18892.2 18892.2    0.00
 1993 175    11       0   15739  272332       0  272332  272332     0.0    0.00  1453.1 18891.1    0.00 18891.1 18891.1    0.00
 1993 176    12       0   15738  272317       0  272317  272317     0.0    0.00  1453.0 18890.0    0.00 18890.0 18890.0    0.00
 1993 177    13       0   15737  272302       0  272302  272302     0.0    0.00  1452.9 18889.0    0.00 18889.0 18889.0    0.00
 1993 178    14       0   15736  272287       0  272287  272287     0.0    0.00  1452.9 18888.0    0.00 18888.0 18888.0    0.00
 1993 179    15       0   15735  272273       0  272273  272273     0.0    0.00  1452.8 18887.0    0.00 18887.0 18887.0    0.00
 1993 180    16       0   15734  272259       0  272259  272259     0.0    0.00  1452.7 18886.0    0.00 18886.0 18886.0    0.00
 1993 181    17       0   15734  272246       0  272246  272246     0.1    0.00  1452.6 18885.1    0.00 18885.1 18885.1    0.00
 1993 182    18       0   15733  272232       0  272232  272232     0.1    0.00  1452.6 18884.2    0.00 18884.2 18884.2    0.00
 1993 183    19       0   15733  272219       0  272219  272218     0.2    0.00  1452.5 18883.2    0.00 18883.2 18883.2    0.01
 1993 184    20       0   15732  272205       0  272205  272205     0.2    0.00  1452.5 18882.3    0.00 18882.3 18882.3    0.01
 1993 185    21       0   15731  272191       0  272191  272191     0.3    0.00  1452.4 18881.3    0.00 18881.3 18881.3    0.01
 1993 186    22       0   15730  272177       0  272177  272177     0.4    0.00  1452.3 18880.4    0.00 18880.4 18880.3    0.01
 1993 187    23       0   15730  272163       0  272163  272163     0.5    0.00  1452.3 18879.4    0.00 18879.4 18879.4    0.02
 1993 188    24       0   15729  272150       0  272150  272149     0.6    0.00  1452.2 18878.4    0.00 18878.4 18878.4    0.02
 1993 189    25       0   15728  272136       0  272136  272136     0.7    0.00  1452.1 18877.5    0.00 18877.5 18877.5    0.02
 1993 190    26       0   15727  272123       0  272123  272122     0.8    0.00  1452.0 18876.6    0.00 18876.6 18876.5    0.03
 1993 191    27       0   15726  272109       0  272109  272108     0.9    0.00  1451.9 18875.6    0.00 18875.6 18875.6    0.03
 1993 192    28       0   15725  272095       0  272095  272094     1.1    0.00  1451.9 18874.6    0.00 18874.6 18874.6    0.04
 1993 193    29       0   15724  272081       0  272081  272080     1.3    0.00  1451.8 18873.6    0.00 18873.6 18873.6    0.04
 1993 194    30       0   15724  272067       0  272067  272065     1.6    0.00  1451.7 18872.6    0.00 18872.6 18872.6    0.05
 1993 195    31       0   15723  272053       0  272053  272051     1.9    0.00  1451.6 18871.7    0.00 18871.7 18871.6    0.06
 1993 196    32       0   15722  272039       0  272039  272037     2.2    0.00  1451.5 18870.7    0.00 18870.7 18870.6    0.07
 1993 197    33       0   15721  272026       0  272026  272023     2.6    0.00  1451.5 18869.7    0.00 18869.7 18869.7    0.09
 1993 198    34       0   15720  272012       0  272012  272009     3.0    0.00  1451.4 18868.8    0.00 18868.8 18868.7    0.10
 1993 199    35       0   15719  271999       0  271999  271995     3.4    0.00  1451.3 18867.8    0.00 18867.8 18867.7    0.11
 1993 200    36       0   15718  271986       0  271986  271982     3.9    0.00  1451.2 18866.9    0.00 18866.9 18866.8    0.13
 1993 201    37       0   15718  271973       0  271973  271968     4.4    0.00  1451.2 18866.0    0.00 18866.0 18865.8    0.14
 1993 202    38       0   15717  271960       0  271960  271955     4.9    0.00  1451.1 18865.1    0.00 18865.1 18864.9    0.16
 1993 203    39       0   15716  271948       0  271948  271942     5.4    0.00  1451.0 18864.2    0.00 18864.2 18864.0    0.17
 1993 204    40       0   15716  271936       0  271936  271930     6.0    0.00  1451.0 18863.4    0.00 18863.4 18863.2    0.19
 1993 205    41       0   15715  271924       0  271924  271917     6.6    0.00  1450.9 18862.5    0.00 18862.5 18862.3    0.21
 1993 206    42       0   15714  271911       0  271911  271904     7.2    0.00  1450.8 18861.6    0.00 18861.6 18861.4    0.23
 1993 207    43       0   15713  271899       0  271899  271892     7.9    0.00  1450.8 18860.8    0.00 18860.8 18860.5    0.25
 1993 208    44       0   15713  271887       0  271887  271879     8.6    0.00  1450.7 18859.9    0.00 18859.9 18859.6    0.28
 1993 209    45       0   15712  271875       0  271875  271866     9.3    0.00  1450.6 18859.0    0.00 18859.0 18858.7    0.30
 1993 210    46       0   15711  271862       0  271862  271852    10.0    0.00  1450.5 18858.1    0.00 18858.1 18857.8    0.32
 1993 211    47       0   15710  271849       0  271849  271839    10.7    0.00  1450.5 18857.2    0.00 18857.2 18856.9    0.35
 1993 212    48       0   15709  271836       0  271836  271825    11.4    0.00  1450.4 18856.3    0.00 18856.3 18855.9    0.37
 1993 213    49       0   15709  271824       0  271824  271811    12.1    0.00  1450.3 18855.4    0.00 18855.4 18855.0    0.40
 1993 214    50       0   15708  271811       0  271811  271798    12.7    0.00  1450.2 18854.4    0.00 18854.4 18854.0    0.42
 1993 215    51       0   15707  271798       0  271798  271784    13.4    0.00  1450.2 18853.5    0.00 18853.5 18853.1    0.44
 1993 216    52       0   15706  271785       0  271785  271771    14.2    0.00  1450.1 18852.6    0.00 18852.6 18852.2    0.47
 1993 217    53       0   15705  271773       0  271773  271758    15.0    0.00  1450.0 18851.8    0.00 18851.8 18851.3    0.50
 1993 218    54       0   15705  271761       0  271761  271745    15.9    0.00  1450.0 18850.9    0.00 18850.9 18850.4    0.52
 1993 219    55       0   15704  271749       0  271749  271732    16.8    0.00  1449.9 18850.0    0.00 18850.0 18849.5    0.55
 1993 220    56       0   15703  271737       0  271737  271719    17.5    0.00  1449.8 18849.2    0.00 18849.2 18848.6    0.58
 1993 221    57       0   15703  271724       0  271724  271706    18.2    0.00  1449.8 18848.2    0.00 18848.2 18847.6    0.60
 1993 222    58       0   15702  271711       0  271711  271692    19.0    0.00  1449.7 18847.3    0.00 18847.3 18846.7    0.63
 1993 223    59       0   15701  271697       0  271697  271678    19.7    0.00  1449.6 18846.3    0.00 18846.3 18845.7    0.65
 1993 224    60       0   15700  271684       0  271684  271663    20.5    0.00  1449.5 18845.4    0.00 18845.4 18844.7    0.67
 1993 225    61       0   15699  271670       0  271670  271649    21.2    0.00  1449.5 18844.4    0.00 18844.4 18843.7    0.70
 1993 226    62       0   15698  271656       0  271656  271634    21.9    0.00  1449.4 18843.4    0.00 18843.4 18842.7    0.72
 1993 227    63       0   15697  271643       0  271643  271620    22.7    0.00  1449.3 18842.5    0.00 18842.5 18841.7    0.74
 1993 228    64       0   15697  271630       0  271630  271607    23.5    0.00  1449.2 18841.5    0.00 18841.5 18840.8    0.77
 1993 229    65       0   15696  271618       0  271618  271593    24.3    0.00  1449.1 18840.6    0.00 18840.6 18839.8    0.79
 1993 230    66       0   15695  271605       0  271605  271580    25.3    0.00  1449.1 18839.7    0.00 18839.7 18838.9    0.81
 1993 231    67       0   15694  271592       0  271592  271565    26.3    0.00  1449.0 18838.8    0.00 18838.8 18837.9    0.84
 1993 232    68       0   15693  271579       0  271579  271551    27.4    0.00  1448.9 18837.8    0.00 18837.8 18836.9    0.87
 1993 233    69       0   15692  271565       0  271565  271537    28.3    0.00  1448.8 18836.8    0.00 18836.8 18835.9    0.89
 1993 234    70       0   15692  271551       0  271551  271522    29.2    0.00  1448.8 18835.8    0.00 18835.8 18834.9    0.92
 1993 235    71       0   15691  271537       0  271537  271508    30.0    0.00  1448.7 18834.8    0.00 18834.8 18833.9    0.94
 1993 236    72       0   15690  271524       0  271524  271493    30.8    0.00  1448.6 18833.8    0.00 18833.8 18832.9    0.96
 1993 237    73       0   15689  271510       0  271510  271479    31.5    0.00  1448.5 18832.9    0.00 18832.9 18831.9    0.99
 1993 238    74       0   15688  271497       0  271497  271465    32.3    0.00  1448.4 18831.9    0.00 18831.9 18830.9    1.01
 1993 239    75       0   15687  271484       0  271484  271451    33.2    0.00  1448.4 18831.0    0.00 18831.0 18830.0    1.04
 1993 240    76       0   15687  271472       0  271472  271438    34.2    0.00  1448.3 18830.1    0.00 18830.1 18829.0    1.06
 1993 241    77       0   15686  271460       0  271460  271425    35.2    0.00  1448.2 18829.2    0.00 18829.2 18828.2    1.09
 1993 242    78       0   15685  271448       0  271448  271412    36.1    0.00  1448.2 18828.4    0.00 18828.4 18827.3    1.12
 1993 243    79       0   15684  271436       0  271436  271399    37.0    0.00  1448.1 18827.5    0.00 18827.5 18826.4    1.15
 1993 244    80       0   15684  271424       0  271424  271386    38.0    0.00  1448.0 18826.6    0.00 18826.6 18825.5    1.17
 1993 245    81       0   15683  271411       0  271411  271372    38.7    0.00  1447.9 18825.7    0.00 18825.7 18824.5    1.20
 1993 246    82       0   15682  271398       0  271398  271359    39.3    0.00  1447.9 18824.8    0.00 18824.8 18823.6    1.22
 1993 247    83       0   15681  271386       0  271386  271346    40.1    0.00  1447.8 18823.9    0.00 18823.9 18822.7    1.25
 1993 248    84       0   15680  271374       0  271374  271333    40.9    0.00  1447.7 18823.0    0.00 18823.0 18821.8    1.28
 1993 249    85       0   15680  271361       0  271361  271320    41.6    0.00  1447.7 18822.2    0.00 18822.2 18820.9    1.30
 1993 250    86       0   15679  271349       0  271349  271307    42.5    0.00  1447.6 18821.3    0.00 18821.3 18820.0    1.33
 1993 251    87       0   15678  271337       0  271337  271294    43.5    0.00  1447.5 18820.4    0.00 18820.4 18819.1    1.36
 1993 252    88       0   15677  271324       0  271324  271280    44.6    0.00  1447.4 18819.5    0.00 18819.5 18818.1    1.39
 1993 253    89       0   15677  271312       0  271312  271266    45.8    0.00  1447.4 18818.6    0.00 18818.6 18817.2    1.42
 1993 254    90       0   15676  271299       0  271299  271252    46.8    0.00  1447.3 18817.6    0.00 18817.6 18816.2    1.45
 1993 255    91       0   15675  271285       0  271285  271238    47.7    0.00  1447.2 18816.7    0.00 18816.7 18815.2    1.48
 1993 256    92       0   15674  271272       0  271272  271223    48.7    0.00  1447.1 18815.7    0.00 18815.7 18814.2    1.51
 1993 257    93       0   15673  271259       0  271259  271209    49.8    0.00  1447.1 18814.7    0.00 18814.7 18813.2    1.54
 1993 258    94       0   15672  271245       0  271245  271194    50.9    0.00  1447.0 18813.7    0.00 18813.7 18812.2    1.57
 1993 259    95       0   15671  271232       0  271232  271180    52.0    0.00  1446.9 18812.8    0.00 18812.8 18811.2    1.60
 1993 260    96       0   15671  271218       0  271218  271165    53.0    0.00  1446.8 18811.8    0.00 18811.8 18810.1    1.63
 1993 261    97       0   15670  271204       0  271204  271150    54.1    0.00  1446.7 18810.8    0.00 18810.8 18809.1    1.66
 1993 262    98       0   15669  271191       0  271191  271136    55.3    0.00  1446.7 18809.8    0.00 18809.8 18808.1    1.70
 1993 263    99       0   15668  271178       0  271178  271121    56.7    0.00  1446.6 18808.8    0.00 18808.8 18807.1    1.73
 1993 264   100       0   15667  271165       0  271165  271107    58.3    0.00  1446.5 18807.9    0.00 18807.9 18806.1    1.77
 1993 265   101       0   15666  271152       0  271152  271092    60.0    0.00  1446.4 18806.9    0.00 18806.9 18805.1    1.82
 1993 266   102       0   15665  271139       0  271139  271077    61.5    0.00  1446.3 18805.9    0.00 18805.9 18804.1    1.86
 1993 267   103       0   15665  271126       0  271126  271063    63.0    0.00  1446.3 18805.0    0.00 18805.0 18803.1    1.90
 1993 268   104       0   15664  271114       0  271114  271049    64.7    0.00  1446.2 18804.0    0.00 18804.0 18802.1    1.94
 1993 269   105       0   15663  271102       0  271102  271035    66.5    0.00  1446.1 18803.1    0.00 18803.1 18801.2    1.98
 1993 270   106       0   15662  271090       0  271090  271021    68.3    0.00  1446.0 18802.2    0.00 18802.2 18800.2    2.03
 1993 271   107       0   15661  271078       0  271078  271008    70.2    0.00  1446.0 18801.4    0.00 18801.4 18799.3    2.08
 1993 272   108       0   15660  271066       0  271066  270995    71.9    0.00  1445.9 18800.5    0.00 18800.5 18798.3    2.12
 1993 273   109       0   15659  271054       0  271054  270981    73.6    0.00  1445.8 18799.5    0.00 18799.5 18797.4    2.17
 1993 274   110       0   15659  271043       0  271043  270967    75.5    0.00  1445.7 18798.7    0.00 18798.7 18796.4    2.22
 1993 275   111       0   15658  271031       0  271031  270954    77.5    0.00  1445.6 18797.8    0.00 18797.8 18795.5    2.27
 1993 276   112       0   15657  271020       0  271020  270941    79.6    0.00  1445.6 18796.9    0.00 18796.9 18794.6    2.33
 1993 277   113       0   15656  271009       0  271009  270927    81.6    0.00  1445.5 18796.1    0.00 18796.1 18793.7    2.38
 1993 278   114       0   15655  270998       0  270998  270914    83.6    0.00  1445.4 18795.2    0.00 18795.2 18792.8    2.43
 1993 279   115       0   15654  270985       0  270985  270900    85.3    0.00  1445.3 18794.3    0.00 18794.3 18791.8    2.48
 1993 280   116       0   15654  270973       0  270973  270886    87.2    0.00  1445.2 18793.4    0.00 18793.4 18790.8    2.54
 1993 281   117       0   15653  270961       0  270961  270872    89.2    0.00  1445.2 18792.5    0.00 18792.5 18789.9    2.59
 1993 282   118       0   15652  270950       0  270950  270858    91.5    0.00  1445.1 18791.6    0.00 18791.6 18788.9    2.65
 1993 283   119       0   15651  270939       0  270939  270845    94.1    0.00  1445.0 18790.7    0.00 18790.7 18788.0    2.71
 1993 284   120       0   15650  270928       0  270928  270832    96.9    0.00  1444.9 18789.8    0.00 18789.8 18787.1    2.78
 1993 285   121       0   15650  270918       0  270918  270819    99.9    0.00  1444.9 18789.0    0.00 18789.0 18786.2    2.84
 1993 286   122       0   15649  270909       0  270909  270806   103.2    0.00  1444.8 18788.2    0.00 18788.2 18785.3    2.91
 1993 287   123       0   15648  270900       0  270900  270794   106.8    0.00  1444.8 18787.5    0.00 18787.5 18784.5    2.98
 1993 288   124       0   15648  270892       0  270892  270782   110.6    0.00  1444.7 18786.8    0.00 18786.8 18783.7    3.06
 1993 289   125       0   15648  270885       0  270885  270771   114.6    0.00  1444.7 18786.1    0.00 18786.1 18782.9    3.14
 1993 290   126       0   15647  270878       0  270878  270759   118.8    0.00  1444.7 18785.4    0.00 18785.4 18782.2    3.21
 1993 291   127       0   15647  270871       0  270871  270748   123.1    0.00  1444.6 18784.8    0.00 18784.8 18781.5    3.29
 1993 292   128       0   15647  270865       0  270865  270737   127.5    0.00  1444.6 18784.1    0.00 18784.1 18780.8    3.37
 1993 293   129       0   15646  270859       0  270859  270727   132.0    0.00  1444.6 18783.5    0.00 18783.5 18780.0    3.46
 1993 294   130       0   15646  270853       0  270853  270716   136.5    0.00  1444.6 18782.9    0.00 18782.9 18779.3    3.54
 1993 295   131       0   15646  270847       0  270847  270706   141.0    0.00  1444.5 18782.3    0.00 18782.3 18778.7    3.62
 1993 296   132       0   15646  270841       0  270841  270696   145.5    0.00  1444.5 18781.7    0.00 18781.7 18778.0    3.70
 1993 297   133       0   15645  270836       0  270836  270686   150.0    0.00  1444.5 18781.1    0.00 18781.1 18777.4    3.78
 1993 298   134       0   15645  270831       0  270831  270676   154.6    0.00  1444.5 18780.6    0.00 18780.6 18776.7    3.86
 1993 299   135       0   15645  270819       0  270819  270666   153.8    0.00  1444.4 18779.9    0.00 18779.9 18776.0    3.86
 1993 300   136       0   15644  270808       0  270808  270655   153.1    0.00  1444.4 18779.2    0.00 18779.2 18775.3    3.86
 1993 301   137       0   15644  270798       0  270798  270645   152.7    0.00  1444.4 18778.5    0.00 18778.5 18774.7    3.86

*DSSAT Cropping System Model Ver. 4.7.5.008 -release  JAN 15, 2021 21:49:57

*RUN   4        : ERiMA DCC1                MZCER047 ETMZpolo    1
 MODEL          : MZCER047 - Maize
 EXPERIMENT     : ETMZpolo SN MELKSSAL
 DATA PATH      : C:\Users\kpodo\Documents\GitHub\ET_DSS_hist_Eunjin\TEST\
 TREATMENT  1   : ERiMA DCC1                MZCER047
  
@YEAR DOY   DAS    OMAC    SCDD    SOCD    SC0D    SCTD   SOMCT    LCTD    ONAC    SNDD    SOND    SN0D    SNTD   SOMNT    LNTD
 1994 164     0       0   15750  272505       0  272505  272505     0.0    0.00  1454.1 18903.2    0.00 18903.2 18903.2    0.00
 1994 165     1       0   15749  272490       0  272490  272490     0.0    0.00  1454.1 18902.1    0.00 18902.1 18902.1    0.00
 1994 166     2       0   15748  272474       0  272474  272474     0.0    0.00  1454.0 18901.0    0.00 18901.0 18901.0    0.00
 1994 167     3       0   15747  272458       0  272458  272458     0.0    0.00  1453.9 18899.9    0.00 18899.9 18899.9    0.00
 1994 168     4       0   15746  272442       0  272442  272442     0.0    0.00  1453.8 18898.8    0.00 18898.8 18898.8    0.00
 1994 169     5       0   15745  272427       0  272427  272427     0.0    0.00  1453.7 18897.7    0.00 18897.7 18897.7    0.00
 1994 170     6       0   15744  272412       0  272412  272412     0.0    0.00  1453.6 18896.6    0.00 18896.6 18896.6    0.00
 1994 171     7       0   15743  272396       0  272396  272396     0.0    0.00  1453.5 18895.6    0.00 18895.6 18895.6    0.00
 1994 172     8       0   15742  272381       0  272381  272381     0.0    0.00  1453.4 18894.5    0.00 18894.5 18894.5    0.00
 1994 173     9       0   15741  272365       0  272365  272365     0.0    0.00  1453.3 18893.4    0.00 18893.4 18893.4    0.00
 1994 174    10       0   15740  272349       0  272349  272349     0.0    0.00  1453.2 18892.3    0.00 18892.3 18892.3    0.00
 1994 175    11       0   15739  272332       0  272332  272332     0.0    0.00  1453.1 18891.1    0.00 18891.1 18891.1    0.00
 1994 176    12       0   15738  272316       0  272316  272316     0.0    0.00  1453.0 18890.0    0.00 18890.0 18890.0    0.00
 1994 177    13       0   15737  272300       0  272300  272300     0.0    0.00  1452.9 18888.8    0.00 18888.8 18888.8    0.00
 1994 178    14       0   15736  272284       0  272284  272284     0.0    0.00  1452.8 18887.8    0.00 18887.8 18887.8    0.00
 1994 179    15       0   15735  272269       0  272269  272269     0.1    0.00  1452.8 18886.7    0.00 18886.7 18886.7    0.00
 1994 180    16       0   15734  272254       0  272254  272254     0.1    0.00  1452.7 18885.6    0.00 18885.6 18885.6    0.00
 1994 181    17       0   15733  272239       0  272239  272239     0.1    0.00  1452.6 18884.6    0.00 18884.6 18884.6    0.00
 1994 182    18       0   15732  272224       0  272224  272224     0.2    0.00  1452.5 18883.6    0.00 18883.6 18883.6    0.01
 1994 183    19       0   15731  272210       0  272210  272210     0.3    0.00  1452.4 18882.6    0.00 18882.6 18882.5    0.01
 1994 184    20       0   15730  272195       0  272195  272195     0.3    0.00  1452.3 18881.5    0.00 18881.5 18881.5    0.01
 1994 185    21       0   15729  272181       0  272181  272181     0.4    0.00  1452.2 18880.6    0.00 18880.6 18880.5    0.01
 1994 186    22       0   15728  272167       0  272167  272167     0.5    0.00  1452.2 18879.6    0.00 18879.6 18879.6    0.02
 1994 187    23       0   15728  272153       0  272153  272152     0.7    0.00  1452.1 18878.6    0.00 18878.6 18878.6    0.02
 1994 188    24       0   15727  272139       0  272139  272138     0.8    0.00  1452.0 18877.6    0.00 18877.6 18877.6    0.03
 1994 189    25       0   15726  272125       0  272125  272124     1.0    0.00  1451.9 18876.6    0.00 18876.6 18876.6    0.03
 1994 190    26       0   15725  272112       0  272112  272110     1.2    0.00  1451.8 18875.7    0.00 18875.7 18875.6    0.04
 1994 191    27       0   15724  272098       0  272098  272097     1.5    0.00  1451.8 18874.7    0.00 18874.7 18874.7    0.05
 1994 192    28       0   15723  272085       0  272085  272083     1.8    0.00  1451.7 18873.8    0.00 18873.8 18873.7    0.06
 1994 193    29       0   15722  272071       0  272071  272069     2.1    0.00  1451.6 18872.8    0.00 18872.8 18872.8    0.07
 1994 194    30       0   15722  272058       0  272058  272056     2.5    0.00  1451.5 18871.9    0.00 18871.9 18871.8    0.09
 1994 195    31       0   15721  272045       0  272045  272042     2.9    0.00  1451.5 18871.0    0.00 18871.0 18870.9    0.10
 1994 196    32       0   15720  272032       0  272032  272028     3.4    0.00  1451.4 18870.0    0.00 18870.0 18869.9    0.11
 1994 197    33       0   15719  272018       0  272018  272015     3.9    0.00  1451.3 18869.1    0.00 18869.1 18869.0    0.13
 1994 198    34       0   15718  272005       0  272005  272001     4.4    0.00  1451.2 18868.2    0.00 18868.2 18868.0    0.14
 1994 199    35       0   15718  271992       0  271992  271987     5.0    0.00  1451.1 18867.2    0.00 18867.2 18867.1    0.16
 1994 200    36       0   15717  271979       0  271979  271973     5.7    0.00  1451.1 18866.3    0.00 18866.3 18866.1    0.18
 1994 201    37       0   15716  271966       0  271966  271960     6.3    0.00  1451.0 18865.4    0.00 18865.4 18865.2    0.20
 1994 202    38       0   15715  271953       0  271953  271946     6.9    0.00  1450.9 18864.5    0.00 18864.5 18864.2    0.22
 1994 203    39       0   15714  271941       0  271941  271933     7.7    0.00  1450.8 18863.6    0.00 18863.6 18863.3    0.25
 1994 204    40       0   15713  271928       0  271928  271920     8.5    0.00  1450.8 18862.6    0.00 18862.6 18862.4    0.27
 1994 205    41       0   15713  271916       0  271916  271906     9.2    0.00  1450.7 18861.8    0.00 18861.8 18861.5    0.30
 1994 206    42       0   15712  271903       0  271903  271893     9.9    0.00  1450.6 18860.9    0.00 18860.9 18860.5    0.32
 1994 207    43       0   15711  271891       0  271891  271880    10.7    0.00  1450.5 18860.0    0.00 18860.0 18859.6    0.35
 1994 208    44       0   15710  271878       0  271878  271867    11.5    0.00  1450.5 18859.1    0.00 18859.1 18858.7    0.37
 1994 209    45       0   15709  271866       0  271866  271854    12.2    0.00  1450.4 18858.2    0.00 18858.2 18857.8    0.39
 1994 210    46       0   15709  271854       0  271854  271841    13.0    0.00  1450.3 18857.3    0.00 18857.3 18856.9    0.41
 1994 211    47       0   15708  271841       0  271841  271827    13.7    0.00  1450.3 18856.4    0.00 18856.4 18856.0    0.44
 1994 212    48       0   15707  271829       0  271829  271815    14.5    0.00  1450.2 18855.5    0.00 18855.5 18855.1    0.46
 1994 213    49       0   15706  271817       0  271817  271802    15.3    0.00  1450.1 18854.7    0.00 18854.7 18854.2    0.49
 1994 214    50       0   15706  271805       0  271805  271789    16.1    0.00  1450.0 18853.8    0.00 18853.8 18853.3    0.51
 1994 215    51       0   15705  271793       0  271793  271776    16.9    0.00  1450.0 18853.0    0.00 18853.0 18852.4    0.54
 1994 216    52       0   15704  271782       0  271782  271764    17.7    0.00  1449.9 18852.1    0.00 18852.1 18851.6    0.57
 1994 217    53       0   15703  271770       0  271770  271752    18.5    0.00  1449.9 18851.3    0.00 18851.3 18850.7    0.60
 1994 218    54       0   15703  271759       0  271759  271739    19.4    0.00  1449.8 18850.5    0.00 18850.5 18849.8    0.62
 1994 219    55       0   15702  271747       0  271747  271727    20.4    0.00  1449.7 18849.6    0.00 18849.6 18849.0    0.65
 1994 220    56       0   15702  271735       0  271735  271714    21.3    0.00  1449.7 18848.8    0.00 18848.8 18848.1    0.68
 1994 221    57       0   15701  271724       0  271724  271702    22.3    0.00  1449.6 18848.0    0.00 18848.0 18847.3    0.71
 1994 222    58       0   15700  271712       0  271712  271689    23.2    0.00  1449.6 18847.1    0.00 18847.1 18846.4    0.74
 1994 223    59       0   15699  271700       0  271700  271676    24.0    0.00  1449.5 18846.2    0.00 18846.2 18845.5    0.77
 1994 224    60       0   15699  271688       0  271688  271663    24.9    0.00  1449.4 18845.4    0.00 18845.4 18844.6    0.80
 1994 225    61       0   15698  271676       0  271676  271650    25.7    0.00  1449.3 18844.5    0.00 18844.5 18843.7    0.82
 1994 226    62       0   15697  271664       0  271664  271637    26.6    0.00  1449.3 18843.7    0.00 18843.7 18842.8    0.85
 1994 227    63       0   15696  271652       0  271652  271624    27.5    0.00  1449.2 18842.8    0.00 18842.8 18841.9    0.87
 1994 228    64       0   15696  271640       0  271640  271612    28.2    0.00  1449.1 18842.0    0.00 18842.0 18841.1    0.90
 1994 229    65       0   15695  271628       0  271628  271599    28.9    0.00  1449.1 18841.1    0.00 18841.1 18840.2    0.92
 1994 230    66       0   15694  271615       0  271615  271586    29.8    0.00  1449.0 18840.2    0.00 18840.2 18839.2    0.95
 1994 231    67       0   15693  271603       0  271603  271572    30.7    0.00  1448.9 18839.3    0.00 18839.3 18838.3    0.97
 1994 232    68       0   15693  271590       0  271590  271559    31.8    0.00  1448.8 18838.4    0.00 18838.4 18837.4    1.00
 1994 233    69       0   15692  271578       0  271578  271545    32.9    0.00  1448.8 18837.5    0.00 18837.5 18836.4    1.03
 1994 234    70       0   15691  271565       0  271565  271532    33.8    0.00  1448.7 18836.6    0.00 18836.6 18835.5    1.05
 1994 235    71       0   15690  271553       0  271553  271518    34.7    0.00  1448.6 18835.7    0.00 18835.7 18834.6    1.08
 1994 236    72       0   15690  271540       0  271540  271505    35.5    0.00  1448.6 18834.8    0.00 18834.8 18833.7    1.10
 1994 237    73       0   15689  271528       0  271528  271492    36.5    0.00  1448.5 18833.9    0.00 18833.9 18832.7    1.13
 1994 238    74       0   15688  271516       0  271516  271479    37.3    0.00  1448.4 18833.0    0.00 18833.0 18831.8    1.16
 1994 239    75       0   15687  271504       0  271504  271466    38.1    0.00  1448.3 18832.1    0.00 18832.1 18830.9    1.18
 1994 240    76       0   15686  271492       0  271492  271453    38.9    0.00  1448.3 18831.2    0.00 18831.2 18830.0    1.21
 1994 241    77       0   15686  271480       0  271480  271440    39.8    0.00  1448.2 18830.4    0.00 18830.4 18829.1    1.23
 1994 242    78       0   15685  271468       0  271468  271427    40.7    0.00  1448.1 18829.5    0.00 18829.5 18828.3    1.26
 1994 243    79       0   15684  271456       0  271456  271414    41.5    0.00  1448.1 18828.7    0.00 18828.7 18827.4    1.29
 1994 244    80       0   15683  271444       0  271444  271402    42.1    0.00  1448.0 18827.8    0.00 18827.8 18826.5    1.31
 1994 245    81       0   15683  271431       0  271431  271389    42.9    0.00  1447.9 18826.9    0.00 18826.9 18825.6    1.34
 1994 246    82       0   15682  271419       0  271419  271376    43.7    0.00  1447.9 18826.0    0.00 18826.0 18824.7    1.36
 1994 247    83       0   15681  271407       0  271407  271362    44.5    0.00  1447.8 18825.2    0.00 18825.2 18823.8    1.39
 1994 248    84       0   15680  271394       0  271394  271349    45.1    0.00  1447.7 18824.3    0.00 18824.3 18822.9    1.41
 1994 249    85       0   15679  271382       0  271382  271336    45.8    0.00  1447.6 18823.4    0.00 18823.4 18822.0    1.44
 1994 250    86       0   15679  271370       0  271370  271323    46.6    0.00  1447.6 18822.5    0.00 18822.5 18821.1    1.46
 1994 251    87       0   15678  271358       0  271358  271310    47.5    0.00  1447.5 18821.7    0.00 18821.7 18820.2    1.49
 1994 252    88       0   15677  271346       0  271346  271297    48.5    0.00  1447.4 18820.8    0.00 18820.8 18819.3    1.52
 1994 253    89       0   15677  271334       0  271334  271284    49.7    0.00  1447.4 18819.9    0.00 18819.9 18818.3    1.55
 1994 254    90       0   15676  271321       0  271321  271270    51.0    0.00  1447.3 18819.0    0.00 18819.0 18817.4    1.58
 1994 255    91       0   15675  271309       0  271309  271257    52.4    0.00  1447.3 18818.1    0.00 18818.1 18816.5    1.61
 1994 256    92       0   15675  271298       0  271298  271244    53.9    0.00  1447.2 18817.2    0.00 18817.2 18815.6    1.65
 1994 257    93       0   15674  271286       0  271286  271230    55.6    0.00  1447.1 18816.4    0.00 18816.4 18814.7    1.69
 1994 258    94       0   15674  271275       0  271275  271218    57.4    0.00  1447.1 18815.5    0.00 18815.5 18813.8    1.73
 1994 259    95       0   15673  271264       0  271264  271205    59.4    0.00  1447.1 18814.7    0.00 18814.7 18813.0    1.77
 1994 260    96       0   15673  271254       0  271254  271192    61.5    0.00  1447.0 18813.9    0.00 18813.9 18812.1    1.81
 1994 261    97       0   15672  271244       0  271244  271180    63.8    0.00  1447.0 18813.2    0.00 18813.2 18811.3    1.85
 1994 262    98       0   15672  271235       0  271235  271169    66.1    0.00  1446.9 18812.4    0.00 18812.4 18810.5    1.90
 1994 263    99       0   15671  271226       0  271226  271157    68.6    0.00  1446.9 18811.7    0.00 18811.7 18809.7    1.95
 1994 264   100       0   15671  271216       0  271216  271145    70.9    0.00  1446.8 18810.9    0.00 18810.9 18808.9    2.00
 1994 265   101       0   15670  271205       0  271205  271133    72.7    0.00  1446.8 18810.1    0.00 18810.1 18808.1    2.04
 1994 266   102       0   15669  271194       0  271194  271120    74.2    0.00  1446.7 18809.3    0.00 18809.3 18807.2    2.08
 1994 267   103       0   15668  271183       0  271183  271107    75.7    0.00  1446.6 18808.5    0.00 18808.5 18806.3    2.13
 1994 268   104       0   15668  271172       0  271172  271095    77.4    0.00  1446.5 18807.6    0.00 18807.6 18805.5    2.17
 1994 269   105       0   15667  271162       0  271162  271083    79.4    0.00  1446.5 18806.9    0.00 18806.9 18804.6    2.22
 1994 270   106       0   15666  271153       0  271153  271071    81.7    0.00  1446.4 18806.1    0.00 18806.1 18803.8    2.27
 1994 271   107       0   15665  271144       0  271144  271060    84.2    0.00  1446.3 18805.4    0.00 18805.4 18803.0    2.32
 1994 272   108       0   15665  271136       0  271136  271049    87.1    0.00  1446.3 18804.7    0.00 18804.7 18802.3    2.38
 1994 273   109       0   15664  271128       0  271128  271038    90.1    0.00  1446.3 18804.0    0.00 18804.0 18801.6    2.43
 1994 274   110       0   15664  271121       0  271121  271028    93.5    0.00  1446.2 18803.4    0.00 18803.4 18800.9    2.49
 1994 275   111       0   15664  271115       0  271115  271018    97.1    0.00  1446.2 18802.8    0.00 18802.8 18800.2    2.55
 1994 276   112       0   15663  271108       0  271108  271008   100.7    0.00  1446.2 18802.2    0.00 18802.2 18799.5    2.61
 1994 277   113       0   15663  271102       0  271102  270998   104.5    0.00  1446.1 18801.5    0.00 18801.5 18798.9    2.67
 1994 278   114       0   15663  271096       0  271096  270988   108.3    0.00  1446.1 18800.9    0.00 18800.9 18798.2    2.74
 1994 279   115       0   15663  271090       0  271090  270977   112.2    0.00  1446.1 18800.3    0.00 18800.3 18797.5    2.80
 1994 280   116       0   15662  271084       0  271084  270968   116.1    0.00  1446.1 18799.8    0.00 18799.8 18796.9    2.86
 1994 281   117       0   15662  271078       0  271078  270958   120.0    0.00  1446.0 18799.2    0.00 18799.2 18796.2    2.92
 1994 282   118       0   15662  271072       0  271072  270948   123.9    0.00  1446.0 18798.6    0.00 18798.6 18795.6    2.99
 1994 283   119       0   15662  271065       0  271065  270938   127.8    0.00  1446.0 18798.0    0.00 18798.0 18794.9    3.05
 1994 284   120       0   15662  271059       0  271059  270928   131.7    0.00  1446.0 18797.4    0.00 18797.4 18794.3    3.11
 1994 285   121       0   15661  271053       0  271053  270917   135.6    0.00  1446.0 18796.8    0.00 18796.8 18793.6    3.18
 1994 286   122       0   15661  271047       0  271047  270907   139.5    0.00  1445.9 18796.2    0.00 18796.2 18792.9    3.24
 1994 287   123       0   15661  271041       0  271041  270897   143.4    0.00  1445.9 18795.6    0.00 18795.6 18792.3    3.30
 1994 288   124       0   15661  271035       0  271035  270887   147.2    0.00  1445.9 18795.0    0.00 18795.0 18791.6    3.36
 1994 289   125       0   15660  271028       0  271028  270877   150.8    0.00  1445.9 18794.4    0.00 18794.4 18791.0    3.43
 1994 290   126       0   15660  271022       0  271022  270868   154.4    0.00  1445.9 18793.8    0.00 18793.8 18790.3    3.49
 1994 291   127       0   15660  271012       0  271012  270858   154.2    0.00  1445.8 18793.1    0.00 18793.1 18789.7    3.49
 1994 292   128       0   15660  271002       0  271002  270848   154.0    0.00  1445.8 18792.5    0.00 18792.5 18789.0    3.49
 1994 293   129       0   15659  270992       0  270992  270838   153.9    0.00  1445.8 18791.9    0.00 18791.9 18788.4    3.49
 1994 294   130       0   15659  270982       0  270982  270829   153.9    0.00  1445.8 18791.2    0.00 18791.2 18787.7    3.49
 1994 295   131       0   15659  270972       0  270972  270819   153.8    0.00  1445.7 18790.6    0.00 18790.6 18787.1    3.49
 1994 296   132       0   15659  270962       0  270962  270808   153.8    0.00  1445.7 18789.9    0.00 18789.9 18786.4    3.49
 1994 297   133       0   15658  270952       0  270952  270798   153.8    0.00  1445.7 18789.2    0.00 18789.2 18785.7    3.49
 1994 298   134       0   15658  270941       0  270941  270788   153.8    0.00  1445.7 18788.5    0.00 18788.5 18785.0    3.49
 1994 299   135       0   15658  270931       0  270931  270777   153.8    0.00  1445.7 18787.8    0.00 18787.8 18784.3    3.49

*DSSAT Cropping System Model Ver. 4.7.5.008 -release  JAN 15, 2021 21:49:57

*RUN   5        : ERiMA DCC1                MZCER047 ETMZpolo    1
 MODEL          : MZCER047 - Maize
 EXPERIMENT     : ETMZpolo SN MELKSSAL
 DATA PATH      : C:\Users\kpodo\Documents\GitHub\ET_DSS_hist_Eunjin\TEST\
 TREATMENT  1   : ERiMA DCC1                MZCER047
  
@YEAR DOY   DAS    OMAC    SCDD    SOCD    SC0D    SCTD   SOMCT    LCTD    ONAC    SNDD    SOND    SN0D    SNTD   SOMNT    LNTD
 1995 164     0       0   15750  272505       0  272505  272505     0.0    0.00  1454.1 18903.2    0.00 18903.2 18903.2    0.00
 1995 165     1       0   15749  272489       0  272489  272489     0.0    0.00  1454.0 18902.0    0.00 18902.0 18902.0    0.00
 1995 166     2       0   15748  272473       0  272473  272473     0.0    0.00  1454.0 18900.9    0.00 18900.9 18900.9    0.00
 1995 167     3       0   15747  272456       0  272456  272456     0.0    0.00  1453.9 18899.8    0.00 18899.8 18899.8    0.00
 1995 168     4       0   15746  272440       0  272440  272440     0.0    0.00  1453.8 18898.6    0.00 18898.6 18898.6    0.00
 1995 169     5       0   15745  272424       0  272424  272424     0.0    0.00  1453.7 18897.5    0.00 18897.5 18897.5    0.00
 1995 170     6       0   15744  272408       0  272408  272408     0.0    0.00  1453.6 18896.4    0.00 18896.4 18896.4    0.00
 1995 171     7       0   15743  272392       0  272392  272392     0.0    0.00  1453.5 18895.3    0.00 18895.3 18895.3    0.00
 1995 172     8       0   15742  272376       0  272376  272376     0.0    0.00  1453.4 18894.2    0.00 18894.2 18894.2    0.00
 1995 173     9       0   15741  272361       0  272361  272361     0.0    0.00  1453.3 18893.1    0.00 18893.1 18893.1    0.00
 1995 174    10       0   15740  272345       0  272345  272345     0.0    0.00  1453.2 18892.0    0.00 18892.0 18892.0    0.00
 1995 175    11       0   15739  272329       0  272329  272329     0.0    0.00  1453.1 18890.9    0.00 18890.9 18890.9    0.00
 1995 176    12       0   15738  272314       0  272314  272314     0.0    0.00  1453.0 18889.8    0.00 18889.8 18889.8    0.00
 1995 177    13       0   15737  272298       0  272298  272298     0.0    0.00  1452.9 18888.7    0.00 18888.7 18888.7    0.00
 1995 178    14       0   15736  272283       0  272283  272283     0.0    0.00  1452.8 18887.7    0.00 18887.7 18887.7    0.00
 1995 179    15       0   15735  272268       0  272268  272268     0.1    0.00  1452.7 18886.6    0.00 18886.6 18886.6    0.00
 1995 180    16       0   15734  272253       0  272253  272252     0.1    0.00  1452.7 18885.5    0.00 18885.5 18885.5    0.00
 1995 181    17       0   15733  272237       0  272237  272237     0.1    0.00  1452.6 18884.5    0.00 18884.5 18884.5    0.00
 1995 182    18       0   15732  272222       0  272222  272222     0.2    0.00  1452.5 18883.4    0.00 18883.4 18883.4    0.01
 1995 183    19       0   15731  272207       0  272207  272207     0.3    0.00  1452.4 18882.4    0.00 18882.4 18882.4    0.01
 1995 184    20       0   15730  272192       0  272192  272192     0.3    0.00  1452.3 18881.3    0.00 18881.3 18881.3    0.01
 1995 185    21       0   15729  272177       0  272177  272177     0.4    0.00  1452.2 18880.3    0.00 18880.3 18880.2    0.01
 1995 186    22       0   15728  272162       0  272162  272162     0.5    0.00  1452.1 18879.2    0.00 18879.2 18879.2    0.02
 1995 187    23       0   15727  272147       0  272147  272146     0.6    0.00  1452.0 18878.2    0.00 18878.2 18878.1    0.02
 1995 188    24       0   15726  272132       0  272132  272132     0.8    0.00  1451.9 18877.1    0.00 18877.1 18877.1    0.03
 1995 189    25       0   15725  272118       0  272118  272117     0.9    0.00  1451.9 18876.1    0.00 18876.1 18876.1    0.03
 1995 190    26       0   15724  272103       0  272103  272102     1.1    0.00  1451.8 18875.1    0.00 18875.1 18875.1    0.04
 1995 191    27       0   15724  272089       0  272089  272088     1.3    0.00  1451.7 18874.1    0.00 18874.1 18874.1    0.04
 1995 192    28       0   15723  272076       0  272076  272074     1.6    0.00  1451.6 18873.2    0.00 18873.2 18873.1    0.05
 1995 193    29       0   15722  272062       0  272062  272060     1.9    0.00  1451.5 18872.2    0.00 18872.2 18872.2    0.06
 1995 194    30       0   15721  272049       0  272049  272046     2.2    0.00  1451.5 18871.2    0.00 18871.2 18871.2    0.07
 1995 195    31       0   15720  272035       0  272035  272032     2.5    0.00  1451.4 18870.3    0.00 18870.3 18870.2    0.08
 1995 196    32       0   15719  272021       0  272021  272018     2.9    0.00  1451.3 18869.3    0.00 18869.3 18869.2    0.10
 1995 197    33       0   15718  272008       0  272008  272005     3.4    0.00  1451.2 18868.4    0.00 18868.4 18868.3    0.11
 1995 198    34       0   15717  271994       0  271994  271991     3.8    0.00  1451.1 18867.4    0.00 18867.4 18867.3    0.12
 1995 199    35       0   15717  271981       0  271981  271976     4.4    0.00  1451.1 18866.5    0.00 18866.5 18866.3    0.14
 1995 200    36       0   15716  271968       0  271968  271963     4.9    0.00  1451.0 18865.5    0.00 18865.5 18865.4    0.16
 1995 201    37       0   15715  271955       0  271955  271949     5.4    0.00  1450.9 18864.6    0.00 18864.6 18864.4    0.17
 1995 202    38       0   15714  271942       0  271942  271936     6.0    0.00  1450.8 18863.7    0.00 18863.7 18863.5    0.19
 1995 203    39       0   15714  271929       0  271929  271923     6.6    0.00  1450.8 18862.8    0.00 18862.8 18862.6    0.21
 1995 204    40       0   15713  271917       0  271917  271910     7.3    0.00  1450.7 18861.9    0.00 18861.9 18861.7    0.23
 1995 205    41       0   15712  271905       0  271905  271897     7.9    0.00  1450.6 18861.0    0.00 18861.0 18860.8    0.25
 1995 206    42       0   15711  271893       0  271893  271884     8.6    0.00  1450.6 18860.2    0.00 18860.2 18859.9    0.27
 1995 207    43       0   15710  271881       0  271881  271871     9.3    0.00  1450.5 18859.3    0.00 18859.3 18859.0    0.30
 1995 208    44       0   15710  271869       0  271869  271859     9.9    0.00  1450.4 18858.5    0.00 18858.5 18858.2    0.32
 1995 209    45       0   15709  271857       0  271857  271847    10.6    0.00  1450.4 18857.6    0.00 18857.6 18857.3    0.34
 1995 210    46       0   15708  271845       0  271845  271834    11.2    0.00  1450.3 18856.8    0.00 18856.8 18856.4    0.36
 1995 211    47       0   15708  271833       0  271833  271821    11.7    0.00  1450.2 18855.9    0.00 18855.9 18855.5    0.38
 1995 212    48       0   15707  271821       0  271821  271809    12.3    0.00  1450.2 18855.0    0.00 18855.0 18854.7    0.39
 1995 213    49       0   15706  271808       0  271808  271796    12.8    0.00  1450.1 18854.2    0.00 18854.2 18853.8    0.41
 1995 214    50       0   15705  271796       0  271796  271783    13.4    0.00  1450.0 18853.3    0.00 18853.3 18852.8    0.43
 1995 215    51       0   15704  271783       0  271783  271770    13.9    0.00  1449.9 18852.4    0.00 18852.4 18851.9    0.45
 1995 216    52       0   15704  271771       0  271771  271757    14.4    0.00  1449.9 18851.5    0.00 18851.5 18851.0    0.47
 1995 217    53       0   15703  271758       0  271758  271743    15.0    0.00  1449.8 18850.6    0.00 18850.6 18850.1    0.49
 1995 218    54       0   15702  271745       0  271745  271730    15.6    0.00  1449.7 18849.7    0.00 18849.7 18849.2    0.51
 1995 219    55       0   15701  271733       0  271733  271716    16.1    0.00  1449.7 18848.8    0.00 18848.8 18848.3    0.53
 1995 220    56       0   15701  271719       0  271719  271703    16.7    0.00  1449.6 18847.9    0.00 18847.9 18847.3    0.55
 1995 221    57       0   15700  271706       0  271706  271689    17.3    0.00  1449.5 18846.9    0.00 18846.9 18846.4    0.57
 1995 222    58       0   15699  271693       0  271693  271675    17.8    0.00  1449.4 18846.0    0.00 18846.0 18845.4    0.59
 1995 223    59       0   15698  271680       0  271680  271662    18.3    0.00  1449.3 18845.1    0.00 18845.1 18844.4    0.61
 1995 224    60       0   15697  271667       0  271667  271648    18.9    0.00  1449.3 18844.1    0.00 18844.1 18843.5    0.63
[...]
 2017 293   129       0   15657  270971       0  270971  270829   141.5    0.00  1445.6 18790.8    0.00 18790.8 18787.5    3.27
 2017 294   130       0   15657  270965       0  270965  270820   145.4    0.00  1445.6 18790.2    0.00 18790.2 18786.9    3.33
 2017 295   131       0   15657  270959       0  270959  270810   149.3    0.00  1445.6 18789.6    0.00 18789.6 18786.2    3.39
 2017 296   132       0   15657  270953       0  270953  270800   153.2    0.00  1445.5 18789.0    0.00 18789.0 18785.6    3.45
 2017 297   133       0   15657  270948       0  270948  270791   157.0    0.00  1445.5 18788.5    0.00 18788.5 18784.9    3.52
 2017 298   134       0   15656  270942       0  270942  270781   160.8    0.00  1445.5 18787.9    0.00 18787.9 18784.3    3.58
 2017 299   135       0   15656  270936       0  270936  270771   164.7    0.00  1445.5 18787.3    0.00 18787.3 18783.7    3.64
 2017 300   136       0   15656  270930       0  270930  270762   168.5    0.00  1445.5 18786.7    0.00 18786.7 18783.0    3.70
 2017 301   137       0   15656  270920       0  270920  270752   168.5    0.00  1445.4 18786.1    0.00 18786.1 18782.4    3.70
 2017 302   138       0   15655  270910       0  270910  270742   168.5    0.00  1445.4 18785.5    0.00 18785.5 18781.8    3.70
 2017 303   139       0   15655  270901       0  270901  270732   168.5    0.00  1445.4 18784.8    0.00 18784.8 18781.1    3.70
 2017 304   140       0   15655  270891       0  270891  270723   168.5    0.00  1445.4 18784.2    0.00 18784.2 18780.5    3.70
 2017 305   141       0   15655  270881       0  270881  270713   168.5    0.00  1445.4 18783.5    0.00 18783.5 18779.8    3.70
 2017 306   142       0   15655  270872       0  270872  270703   168.5    0.00  1445.3 18782.9    0.00 18782.9 18779.2    3.70
 2017 307   143       0   15654  270862       0  270862  270693   168.5    0.00  1445.3 18782.3    0.00 18782.3 18778.6    3.70
 2017 308   144       0   15654  270852       0  270852  270684   168.5    0.00  1445.3 18781.6    0.00 18781.6 18777.9    3.70
 2017 309   145       0   15654  270843       0  270843  270674   168.5    0.00  1445.3 18781.0    0.00 18781.0 18777.3    3.70

*DSSAT Cropping System Model Ver. 4.7.5.008 -release  JAN 15, 2021 21:49:57

*RUN  28        : ERiMA DCC1                MZCER047 ETMZpolo    1
 MODEL          : MZCER047 - Maize
 EXPERIMENT     : ETMZpolo SN MELKSSAL
 DATA PATH      : C:\Users\kpodo\Documents\GitHub\ET_DSS_hist_Eunjin\TEST\
 TREATMENT  1   : ERiMA DCC1                MZCER047
  
@YEAR DOY   DAS    OMAC    SCDD    SOCD    SC0D    SCTD   SOMCT    LCTD    ONAC    SNDD    SOND    SN0D    SNTD   SOMNT    LNTD
 2018 164     0       0   15750  272505       0  272505  272505     0.0    0.00  1454.1 18903.2    0.00 18903.2 18903.2    0.00
 2018 165     1       0   15749  272491       0  272491  272491     0.0    0.00  1454.1 18902.2    0.00 18902.2 18902.2    0.00
 2018 166     2       0   15748  272477       0  272477  272477     0.0    0.00  1454.0 18901.2    0.00 18901.2 18901.2    0.00
 2018 167     3       0   15747  272463       0  272463  272463     0.0    0.00  1453.9 18900.2    0.00 18900.2 18900.2    0.00
 2018 168     4       0   15746  272448       0  272448  272448     0.0    0.00  1453.8 18899.2    0.00 18899.2 18899.2    0.00
 2018 169     5       0   15746  272434       0  272434  272434     0.0    0.00  1453.7 18898.2    0.00 18898.2 18898.2    0.00
 2018 170     6       0   15745  272420       0  272420  272420     0.0    0.00  1453.7 18897.3    0.00 18897.3 18897.3    0.00
 2018 171     7       0   15744  272406       0  272406  272406     0.0    0.00  1453.6 18896.3    0.00 18896.3 18896.3    0.00
 2018 172     8       0   15743  272392       0  272392  272392     0.0    0.00  1453.5 18895.3    0.00 18895.3 18895.3    0.00
 2018 173     9       0   15742  272378       0  272378  272378     0.0    0.00  1453.4 18894.3    0.00 18894.3 18894.3    0.00
 2018 174    10       0   15741  272364       0  272364  272364     0.0    0.00  1453.3 18893.4    0.00 18893.4 18893.4    0.00
 2018 175    11       0   15740  272351       0  272351  272351     0.0    0.00  1453.3 18892.4    0.00 18892.4 18892.4    0.00
 2018 176    12       0   15740  272337       0  272337  272337     0.0    0.00  1453.2 18891.4    0.00 18891.4 18891.4    0.00
 2018 177    13       0   15739  272323       0  272323  272323     0.0    0.00  1453.1 18890.5    0.00 18890.5 18890.5    0.00
 2018 178    14       0   15738  272309       0  272309  272309     0.0    0.00  1453.0 18889.5    0.00 18889.5 18889.5    0.00
 2018 179    15       0   15737  272296       0  272296  272296     0.0    0.00  1452.9 18888.6    0.00 18888.6 18888.6    0.00
 2018 180    16       0   15736  272282       0  272282  272282     0.0    0.00  1452.9 18887.6    0.00 18887.6 18887.6    0.00
 2018 181    17       0   15735  272269       0  272269  272269     0.0    0.00  1452.8 18886.7    0.00 18886.7 18886.7    0.00
 2018 182    18       0   15734  272255       0  272255  272255     0.1    0.00  1452.7 18885.7    0.00 18885.7 18885.7    0.00
 2018 183    19       0   15734  272242       0  272242  272242     0.1    0.00  1452.6 18884.8    0.00 18884.8 18884.8    0.00
 2018 184    20       0   15733  272228       0  272228  272228     0.2    0.00  1452.6 18883.9    0.00 18883.9 18883.9    0.01
 2018 185    21       0   15732  272215       0  272215  272215     0.2    0.00  1452.5 18883.0    0.00 18883.0 18882.9    0.01
 2018 186    22       0   15731  272202       0  272202  272201     0.3    0.00  1452.4 18882.0    0.00 18882.0 18882.0    0.01
 2018 187    23       0   15730  272189       0  272189  272188     0.4    0.00  1452.3 18881.1    0.00 18881.1 18881.1    0.01
 2018 188    24       0   15730  272175       0  272175  272175     0.5    0.00  1452.3 18880.2    0.00 18880.2 18880.2    0.02
 2018 189    25       0   15729  272162       0  272162  272162     0.6    0.00  1452.2 18879.3    0.00 18879.3 18879.3    0.02
 2018 190    26       0   15728  272149       0  272149  272148     0.7    0.00  1452.1 18878.4    0.00 18878.4 18878.3    0.03
 2018 191    27       0   15727  272136       0  272136  272135     0.9    0.00  1452.0 18877.4    0.00 18877.4 18877.4    0.03
 2018 192    28       0   15726  272123       0  272123  272122     1.1    0.00  1452.0 18876.5    0.00 18876.5 18876.5    0.04
 2018 193    29       0   15726  272110       0  272110  272109     1.3    0.00  1451.9 18875.6    0.00 18875.6 18875.6    0.04
 2018 194    30       0   15725  272097       0  272097  272096     1.6    0.00  1451.8 18874.7    0.00 18874.7 18874.7    0.05
 2018 195    31       0   15724  272085       0  272085  272083     1.8    0.00  1451.7 18873.8    0.00 18873.8 18873.8    0.06
 2018 196    32       0   15723  272072       0  272072  272070     2.1    0.00  1451.7 18872.9    0.00 18872.9 18872.9    0.07
 2018 197    33       0   15723  272059       0  272059  272057     2.5    0.00  1451.6 18872.1    0.00 18872.1 18872.0    0.08
 2018 198    34       0   15722  272047       0  272047  272044     2.8    0.00  1451.5 18871.2    0.00 18871.2 18871.1    0.09
 2018 199    35       0   15721  272034       0  272034  272031     3.3    0.00  1451.5 18870.3    0.00 18870.3 18870.2    0.11
 2018 200    36       0   15720  272022       0  272022  272018     3.7    0.00  1451.4 18869.4    0.00 18869.4 18869.3    0.12
 2018 201    37       0   15719  272009       0  272009  272005     4.2    0.00  1451.3 18868.5    0.00 18868.5 18868.4    0.14
 2018 202    38       0   15719  271997       0  271997  271992     4.8    0.00  1451.3 18867.6    0.00 18867.6 18867.5    0.15
 2018 203    39       0   15718  271985       0  271985  271980     5.4    0.00  1451.2 18866.8    0.00 18866.8 18866.6    0.17
 2018 204    40       0   15717  271973       0  271973  271967     5.9    0.00  1451.1 18865.9    0.00 18865.9 18865.7    0.19
 2018 205    41       0   15716  271960       0  271960  271954     6.5    0.00  1451.0 18865.0    0.00 18865.0 18864.8    0.21
 2018 206    42       0   15716  271948       0  271948  271941     7.1    0.00  1451.0 18864.1    0.00 18864.1 18863.9    0.23
 2018 207    43       0   15715  271936       0  271936  271928     7.8    0.00  1450.9 18863.3    0.00 18863.3 18863.0    0.25
 2018 208    44       0   15714  271924       0  271924  271916     8.5    0.00  1450.8 18862.4    0.00 18862.4 18862.2    0.27
 2018 209    45       0   15714  271913       0  271913  271904     9.3    0.00  1450.8 18861.6    0.00 18861.6 18861.3    0.30
 2018 210    46       0   15713  271901       0  271901  271891    10.1    0.00  1450.8 18860.8    0.00 18860.8 18860.5    0.32
 2018 211    47       0   15713  271890       0  271890  271879    10.9    0.00  1450.7 18860.0    0.00 18860.0 18859.7    0.35
 2018 212    48       0   15712  271879       0  271879  271868    11.7    0.00  1450.7 18859.3    0.00 18859.3 18858.9    0.37
 2018 213    49       0   15712  271868       0  271868  271855    12.4    0.00  1450.6 18858.4    0.00 18858.4 18858.0    0.40
 2018 214    50       0   15711  271856       0  271856  271843    13.1    0.00  1450.5 18857.6    0.00 18857.6 18857.2    0.42
 2018 215    51       0   15710  271844       0  271844  271830    13.8    0.00  1450.5 18856.8    0.00 18856.8 18856.3    0.45
 2018 216    52       0   15709  271832       0  271832  271817    14.6    0.00  1450.4 18855.9    0.00 18855.9 18855.4    0.48
 2018 217    53       0   15709  271820       0  271820  271805    15.3    0.00  1450.3 18855.0    0.00 18855.0 18854.5    0.50
 2018 218    54       0   15708  271808       0  271808  271792    15.9    0.00  1450.3 18854.2    0.00 18854.2 18853.6    0.53
 2018 219    55       0   15707  271796       0  271796  271779    16.7    0.00  1450.2 18853.3    0.00 18853.3 18852.7    0.56
 2018 220    56       0   15706  271784       0  271784  271766    17.5    0.00  1450.1 18852.4    0.00 18852.4 18851.9    0.59
 2018 221    57       0   15706  271772       0  271772  271753    18.4    0.00  1450.1 18851.6    0.00 18851.6 18851.0    0.61
 2018 222    58       0   15705  271760       0  271760  271741    19.4    0.00  1450.0 18850.8    0.00 18850.8 18850.1    0.64
 2018 223    59       0   15705  271749       0  271749  271729    20.4    0.00  1450.0 18850.0    0.00 18850.0 18849.3    0.68
 2018 224    60       0   15704  271738       0  271738  271717    21.4    0.00  1449.9 18849.2    0.00 18849.2 18848.5    0.71
 2018 225    61       0   15704  271727       0  271727  271705    22.5    0.00  1449.9 18848.4    0.00 18848.4 18847.7    0.74
 2018 226    62       0   15703  271717       0  271717  271693    23.7    0.00  1449.8 18847.6    0.00 18847.6 18846.9    0.77
 2018 227    63       0   15703  271707       0  271707  271682    24.9    0.00  1449.8 18846.9    0.00 18846.9 18846.1    0.81
 2018 228    64       0   15703  271696       0  271696  271670    26.3    0.00  1449.8 18846.2    0.00 18846.2 18845.3    0.84
 2018 229    65       0   15702  271686       0  271686  271659    27.5    0.00  1449.7 18845.4    0.00 18845.4 18844.5    0.88
 2018 230    66       0   15702  271676       0  271676  271647    28.8    0.00  1449.7 18844.7    0.00 18844.7 18843.7    0.91
 2018 231    67       0   15701  271665       0  271665  271635    30.0    0.00  1449.6 18843.9    0.00 18843.9 18842.9    0.94
 2018 232    68       0   15700  271655       0  271655  271624    31.2    0.00  1449.5 18843.1    0.00 18843.1 18842.1    0.97
 2018 233    69       0   15699  271644       0  271644  271612    32.3    0.00  1449.5 18842.3    0.00 18842.3 18841.3    1.00
 2018 234    70       0   15699  271633       0  271633  271600    33.2    0.00  1449.4 18841.5    0.00 18841.5 18840.5    1.03
 2018 235    71       0   15698  271621       0  271621  271587    34.1    0.00  1449.3 18840.7    0.00 18840.7 18839.6    1.06
 2018 236    72       0   15697  271610       0  271610  271575    35.0    0.00  1449.3 18839.9    0.00 18839.9 18838.8    1.09
 2018 237    73       0   15696  271598       0  271598  271562    35.8    0.00  1449.2 18839.0    0.00 18839.0 18837.9    1.11
 2018 238    74       0   15696  271586       0  271586  271549    36.6    0.00  1449.1 18838.1    0.00 18838.1 18837.0    1.14
 2018 239    75       0   15695  271574       0  271574  271536    37.3    0.00  1449.1 18837.3    0.00 18837.3 18836.1    1.17
 2018 240    76       0   15694  271562       0  271562  271523    38.2    0.00  1449.0 18836.4    0.00 18836.4 18835.2    1.19
 2018 241    77       0   15693  271550       0  271550  271511    39.1    0.00  1448.9 18835.5    0.00 18835.5 18834.3    1.22
 2018 242    78       0   15693  271538       0  271538  271498    40.0    0.00  1448.9 18834.7    0.00 18834.7 18833.4    1.25
 2018 243    79       0   15692  271525       0  271525  271485    40.7    0.00  1448.8 18833.8    0.00 18833.8 18832.5    1.28
 2018 244    80       0   15691  271513       0  271513  271472    41.3    0.00  1448.7 18832.9    0.00 18832.9 18831.6    1.30
 2018 245    81       0   15690  271501       0  271501  271459    42.1    0.00  1448.6 18832.1    0.00 18832.1 18830.7    1.33
 2018 246    82       0   15690  271489       0  271489  271446    42.9    0.00  1448.6 18831.2    0.00 18831.2 18829.8    1.35
 2018 247    83       0   15689  271476       0  271476  271433    43.8    0.00  1448.5 18830.3    0.00 18830.3 18828.9    1.38
 2018 248    84       0   15688  271465       0  271465  271420    44.8    0.00  1448.5 18829.5    0.00 18829.5 18828.0    1.41
 2018 249    85       0   15688  271453       0  271453  271407    45.9    0.00  1448.4 18828.6    0.00 18828.6 18827.2    1.44
 2018 250    86       0   15687  271441       0  271441  271394    47.0    0.00  1448.3 18827.8    0.00 18827.8 18826.3    1.48
 2018 251    87       0   15687  271430       0  271430  271381    48.1    0.00  1448.3 18826.9    0.00 18826.9 18825.4    1.51
 2018 252    88       0   15686  271418       0  271418  271369    49.3    0.00  1448.2 18826.1    0.00 18826.1 18824.6    1.54
 2018 253    89       0   15686  271407       0  271407  271357    50.6    0.00  1448.2 18825.3    0.00 18825.3 18823.7    1.58
 2018 254    90       0   15685  271396       0  271396  271345    51.9    0.00  1448.2 18824.5    0.00 18824.5 18822.9    1.61
 2018 255    91       0   15685  271386       0  271386  271333    53.3    0.00  1448.1 18823.8    0.00 18823.8 18822.1    1.65
 2018 256    92       0   15684  271376       0  271376  271321    54.7    0.00  1448.1 18823.0    0.00 18823.0 18821.3    1.69
 2018 257    93       0   15684  271366       0  271366  271310    56.2    0.00  1448.0 18822.3    0.00 18822.3 18820.5    1.73
 2018 258    94       0   15683  271356       0  271356  271298    57.9    0.00  1448.0 18821.5    0.00 18821.5 18819.8    1.77
 2018 259    95       0   15683  271345       0  271345  271286    59.0    0.00  1447.9 18820.8    0.00 18820.8 18819.0    1.81
 2018 260    96       0   15682  271334       0  271334  271274    60.0    0.00  1447.9 18819.9    0.00 18819.9 18818.1    1.84
 2018 261    97       0   15681  271322       0  271322  271261    60.9    0.00  1447.8 18819.1    0.00 18819.1 18817.2    1.88
 2018 262    98       0   15680  271311       0  271311  271249    61.9    0.00  1447.7 18818.3    0.00 18818.3 18816.3    1.91
 2018 263    99       0   15679  271299       0  271299  271236    63.0    0.00  1447.6 18817.4    0.00 18817.4 18815.5    1.94
 2018 264   100       0   15679  271288       0  271288  271224    64.3    0.00  1447.6 18816.6    0.00 18816.6 18814.6    1.98
 2018 265   101       0   15678  271277       0  271277  271211    65.8    0.00  1447.5 18815.8    0.00 18815.8 18813.8    2.02
 2018 266   102       0   15677  271267       0  271267  271199    67.5    0.00  1447.4 18815.0    0.00 18815.0 18812.9    2.06
 2018 267   103       0   15677  271257       0  271257  271187    69.4    0.00  1447.4 18814.2    0.00 18814.2 18812.1    2.10
 2018 268   104       0   15676  271247       0  271247  271176    71.4    0.00  1447.3 18813.4    0.00 18813.4 18811.3    2.15
 2018 269   105       0   15675  271238       0  271238  271164    73.6    0.00  1447.3 18812.7    0.00 18812.7 18810.5    2.20
 2018 270   106       0   15675  271229       0  271229  271153    76.0    0.00  1447.2 18812.0    0.00 18812.0 18809.8    2.25
 2018 271   107       0   15674  271221       0  271221  271142    78.6    0.00  1447.2 18811.3    0.00 18811.3 18809.0    2.31
 2018 272   108       0   15674  271213       0  271213  271131    81.3    0.00  1447.1 18810.7    0.00 18810.7 18808.3    2.36
 2018 273   109       0   15674  271205       0  271205  271121    84.4    0.00  1447.1 18810.0    0.00 18810.0 18807.6    2.42
 2018 274   110       0   15673  271198       0  271198  271111    87.6    0.00  1447.1 18809.4    0.00 18809.4 18806.9    2.48
 2018 275   111       0   15673  271191       0  271191  271100    90.6    0.00  1447.0 18808.8    0.00 18808.8 18806.2    2.54
 2018 276   112       0   15673  271184       0  271184  271090    93.9    0.00  1447.0 18808.1    0.00 18808.1 18805.5    2.60
 2018 277   113       0   15672  271178       0  271178  271080    97.3    0.00  1447.0 18807.5    0.00 18807.5 18804.9    2.66
 2018 278   114       0   15672  271171       0  271171  271070   100.8    0.00  1447.0 18807.0    0.00 18807.0 18804.2    2.73
 2018 279   115       0   15672  271165       0  271165  271061   104.3    0.00  1446.9 18806.4    0.00 18806.4 18803.6    2.79
 2018 280   116       0   15672  271159       0  271159  271051   107.8    0.00  1446.9 18805.8    0.00 18805.8 18802.9    2.86
 2018 281   117       0   15671  271153       0  271153  271041   111.4    0.00  1446.9 18805.2    0.00 18805.2 18802.3    2.92
 2018 282   118       0   15671  271147       0  271147  271032   115.0    0.00  1446.9 18804.7    0.00 18804.7 18801.7    2.98
 2018 283   119       0   15671  271141       0  271141  271022   118.6    0.00  1446.9 18804.1    0.00 18804.1 18801.0    3.05
 2018 284   120       0   15671  271135       0  271135  271013   122.1    0.00  1446.8 18803.5    0.00 18803.5 18800.4    3.12
 2018 285   121       0   15671  271129       0  271129  271003   125.7    0.00  1446.8 18803.0    0.00 18803.0 18799.8    3.18
 2018 286   122       0   15670  271123       0  271123  270993   129.3    0.00  1446.8 18802.4    0.00 18802.4 18799.2    3.25
 2018 287   123       0   15670  271117       0  271117  270984   132.8    0.00  1446.8 18801.8    0.00 18801.8 18798.5    3.31
 2018 288   124       0   15670  271110       0  271110  270974   136.4    0.00  1446.8 18801.3    0.00 18801.3 18797.9    3.38
 2018 289   125       0   15670  271104       0  271104  270964   139.6    0.00  1446.7 18800.7    0.00 18800.7 18797.2    3.44
 2018 290   126       0   15669  271094       0  271094  270955   139.4    0.00  1446.7 18800.0    0.00 18800.0 18796.6    3.44
 2018 291   127       0   15669  271084       0  271084  270945   139.3    0.00  1446.7 18799.4    0.00 18799.4 18796.0    3.44
 2018 292   128       0   15669  271074       0  271074  270935   139.2    0.00  1446.7 18798.8    0.00 18798.8 18795.3    3.44
 2018 293   129       0   15669  271065       0  271065  270926   139.1    0.00  1446.6 18798.1    0.00 18798.1 18794.7    3.44
 2018 294   130       0   15668  271055       0  271055  270916   139.0    0.00  1446.6 18797.5    0.00 18797.5 18794.0    3.44
 2018 295   131       0   15668  271045       0  271045  270906   139.0    0.00  1446.6 18796.8    0.00 18796.8 18793.4    3.44
 2018 296   132       0   15668  271036       0  271036  270897   139.0    0.00  1446.6 18796.2    0.00 18796.2 18792.8    3.44
 2018 297   133       0   15668  271026       0  271026  270887   139.0    0.00  1446.6 18795.6    0.00 18795.6 18792.1    3.44
 2018 298   134       0   15668  271016       0  271016  270877   139.0    0.00  1446.5 18794.9    0.00 18794.9 18791.5    3.44
