*SOIL WATER DAILY OUTPUT FILE

*DSSAT Cropping System Model Ver. 4.7.5.008 -release  JAN 15, 2021 21:49:57

*RUN   1        : ERiMA DCC1                MZCER047 ETMZpolo    1
 MODEL          : MZCER047 - Maize
 EXPERIMENT     : ETMZpolo SN MELKSSAL
 DATA PATH      : C:\Users\kpodo\Documents\GitHub\ET_DSS_hist_Eunjin\TEST\
 TREATMENT  1   : ERiMA DCC1                MZCER047
  
!                                                                                                 Soil water content (mm3/mm3) by soil depth (cm):
!                                                                                                 0-5    5-15   15-20   20-35   35-50   50-65   65-81   81-97  97-118 118-200
@YEAR DOY   DAS  SWTD  SWXD   ROFC   DRNC   PREC  IR#C  IRRC  DTWT    MWTD  TDFD  TDFC   ROFD    SW1D    SW2D    SW3D    SW4D    SW5D    SW6D    SW7D    SW8D    SW9D    SW10
 1991 164     0   586   288      0      0      0     0     0     0    0.00   0.0   0.0   0.00   0.231   0.231   0.231   0.221   0.316   0.316   0.304   0.304   0.305   0.305
 1991 165     1   585   287      0      0      0     0     0   100    0.00   0.0   0.0   0.00   0.215   0.230   0.231   0.221   0.316   0.316   0.304   0.304   0.305   0.305
 1991 166     2   584   286      0      0      0     0     0   200    0.00   0.0   0.0   0.00   0.200   0.229   0.230   0.221   0.316   0.316   0.304   0.304   0.305   0.305
 1991 167     3   583   285      0      0      0     0     0   200    0.00   0.0   0.0   0.00   0.186   0.228   0.230   0.221   0.316   0.316   0.304   0.304   0.305   0.305
 1991 168     4   583   284      0      0      0     0     0   200    0.00   0.0   0.0   0.00   0.174   0.227   0.230   0.220   0.316   0.316   0.304   0.304   0.305   0.305
 1991 169     5   582   284      0      0      0     0     0   200    0.00   0.0   0.0   0.00   0.162   0.226   0.229   0.220   0.316   0.316   0.304   0.304   0.305   0.305
 1991 170     6   581   283      0      0      0     0     0   200    0.00   0.0   0.0   0.00   0.152   0.225   0.229   0.220   0.315   0.316   0.304   0.304   0.305   0.305
 1991 171     7   580   282      0      0      0     0     0   200    0.00   0.0   0.0   0.00   0.143   0.224   0.229   0.220   0.315   0.316   0.304   0.304   0.305   0.305
 1991 172     8   580   282      0      0      0     0     0   200    0.00   0.0   0.0   0.00   0.134   0.223   0.228   0.220   0.315   0.316   0.304   0.304   0.305   0.305
 1991 173     9   579   281      0      0      0     0     0   200    0.00   0.0   0.0   0.00   0.127   0.221   0.228   0.220   0.315   0.316   0.304   0.304   0.305   0.305
 1991 174    10   579   281      0      0      0     0     0   200    0.00   0.0   0.0   0.00   0.120   0.220   0.228   0.220   0.315   0.315   0.304   0.304   0.305   0.305
 1991 175    11   578   280      0      0      0     0     0   200    0.00   0.0   0.0   0.00   0.113   0.219   0.227   0.219   0.315   0.315   0.304   0.304   0.305   0.305
 1991 176    12   578   280      0      0      0     0     0   200    0.00   0.0   0.0   0.00   0.107   0.217   0.227   0.219   0.315   0.315   0.304   0.304   0.305   0.305
 1991 177    13   577   279      0      0      0     0     0   200    0.00   0.0   0.0   0.00   0.102   0.215   0.225   0.219   0.315   0.315   0.304   0.304   0.305   0.305
 1991 178    14   576   278      0      0      0     0     0   200    0.00   0.0   0.0   0.00   0.097   0.213   0.224   0.219   0.315   0.315   0.304   0.304   0.305   0.305
 1991 179    15   584   285      0      0      8     0     0   200    0.00   0.0   0.0   0.00   0.246   0.211   0.222   0.219   0.315   0.315   0.304   0.304   0.305   0.305
 1991 180    16   582   284      0      0      8     0     0   200    0.00   0.0   0.0   0.00   0.224   0.209   0.221   0.219   0.314   0.315   0.304   0.304   0.305   0.305
 1991 181    17   584   286      0      0     16     0     0   200    0.00   0.0   0.0   0.00   0.293   0.236   0.216   0.216   0.311   0.312   0.301   0.302   0.303   0.303
 1991 182    18   579   281      0      0     16     0     0   200    0.00   0.0   0.0   0.00   0.253   0.237   0.212   0.213   0.308   0.310   0.299   0.300   0.302   0.302
 1991 183    19   578   280      0      0     16     0     0   200    0.00   0.0   0.0   0.00   0.231   0.234   0.211   0.213   0.308   0.310   0.299   0.300   0.302   0.302
 1991 184    20   581   283      0      0     25     0     0   200    0.00   0.0   0.0   0.00   0.303   0.255   0.222   0.210   0.305   0.307   0.297   0.298   0.300   0.301
 1991 185    21   592   294      1      0     42     0     0   200    0.00   0.0   0.0   1.26   0.318   0.305   0.305   0.232   0.302   0.305   0.296   0.297   0.299   0.300
 1991 186    22   588   290      1      0     42     0     0   200    0.00   0.0   0.0   0.00   0.266   0.270   0.272   0.262   0.307   0.304   0.294   0.296   0.298   0.299
 1991 187    23   583   285      1      0     42     0     0   200    0.00   0.0   0.0   0.00   0.245   0.255   0.258   0.261   0.310   0.302   0.293   0.294   0.297   0.298
 1991 188    24   581   283      1      0     42     0     0   200    0.00   0.0   0.0   0.00   0.222   0.248   0.254   0.260   0.310   0.302   0.293   0.294   0.297   0.298
 1991 189    25   579   281      1      0     42     0     0   200    0.00   0.0   0.0   0.00   0.204   0.242   0.250   0.259   0.310   0.302   0.293   0.294   0.297   0.298
 1991 190    26   596   298      4      0     66     0     0   200    0.00   0.0   0.0   2.39   0.327   0.300   0.309   0.270   0.317   0.305   0.292   0.293   0.296   0.297
 1991 191    27   591   293      4      0     66     0     0   200    0.00   0.0   0.0   0.00   0.266   0.264   0.271   0.263   0.315   0.314   0.303   0.303   0.300   0.296
 1991 192    28   604   305      5      0     83     0     0   200    0.00   0.0   0.0   1.00   0.325   0.302   0.318   0.274   0.322   0.318   0.305   0.304   0.299   0.295
 1991 193    29   598   300      5      0     83     0     0   200    0.00   0.0   0.0   0.00   0.266   0.264   0.273   0.264   0.316   0.317   0.303   0.303   0.304   0.304
 1991 194    30   610   311      6      0     99     0     0   200    0.00   0.0   0.0   1.00   0.320   0.298   0.315   0.273   0.322   0.320   0.305   0.304   0.305   0.303
 1991 195    31   599   301      6      6     99     0     0   200    0.00   0.0   0.0   0.00   0.267   0.264   0.272   0.263   0.317   0.316   0.304   0.303   0.304   0.304
 1991 196    32   595   296      6      6     99     0     0   200    0.00   0.0   0.0   0.00   0.246   0.250   0.255   0.259   0.315   0.315   0.303   0.303   0.304   0.304
 1991 197    33   591   293      6      6     99     0     0   200    0.00   0.0   0.0   0.00   0.220   0.240   0.246   0.256   0.315   0.315   0.303   0.303   0.304   0.304
 1991 198    34   588   290      6      6     99     0     0   200    0.00   0.0   0.0   0.00   0.199   0.228   0.235   0.252   0.315   0.315   0.303   0.303   0.304   0.304
 1991 199    35   604   306      7      6    120     0     0   200    0.00   0.0   0.0   1.36   0.333   0.287   0.285   0.261   0.317   0.314   0.303   0.303   0.304   0.304
 1991 200    36   596   298      7      8    120     0     0   200    0.00   0.0   0.0   0.00   0.270   0.257   0.257   0.258   0.315   0.315   0.303   0.303   0.304   0.304
 1991 201    37   592   294      7      8    120     0     0   200    0.00   0.0   0.0   0.00   0.249   0.248   0.246   0.252   0.314   0.314   0.302   0.303   0.304   0.304
 1991 202    38   589   291      7      8    120     0     0   200    0.00   0.0   0.0   0.00   0.223   0.238   0.237   0.248   0.313   0.314   0.302   0.303   0.304   0.304
 1991 203    39   585   287      7      8    120     0     0   200    0.00   0.0   0.0   0.00   0.201   0.227   0.226   0.243   0.313   0.314   0.302   0.303   0.304   0.304
 1991 204    40   581   283      7      8    120     0     0   200    0.00   0.0   0.0   0.00   0.186   0.213   0.213   0.236   0.312   0.314   0.302   0.303   0.304   0.304
 1991 205    41   577   279      7      8    120     0     0   200    0.00   0.0   0.0   0.00   0.172   0.204   0.204   0.223   0.311   0.314   0.302   0.303   0.304   0.304
 1991 206    42   573   274      7      8    120     0     0   200    0.00   0.0   0.0   0.00   0.161   0.198   0.199   0.205   0.309   0.314   0.302   0.303   0.304   0.304
 1991 207    43   586   288      8      8    139     0     0   200    0.00   0.0   0.0   0.56   0.321   0.269   0.235   0.185   0.307   0.314   0.302   0.303   0.304   0.304
 1991 208    44   593   294      8      8    149     0     0   200    0.00   0.0   0.0   0.10   0.330   0.289   0.286   0.198   0.306   0.313   0.302   0.302   0.304   0.304
 1991 209    45   588   290      8      8    149     0     0   200    0.00   0.0   0.0   0.00   0.275   0.259   0.258   0.221   0.305   0.313   0.302   0.302   0.303   0.304
 1991 210    46   584   286      8      8    149     0     0   200    0.00   0.0   0.0   0.00   0.253   0.248   0.247   0.215   0.302   0.313   0.301   0.302   0.303   0.303
 1991 211    47   597   299      9      8    168     0     0   200    0.00   0.0   0.0   1.35   0.326   0.295   0.300   0.234   0.300   0.312   0.301   0.301   0.303   0.303
 1991 212    48   593   294      9      8    168     0     0   200    0.00   0.0   0.0   0.00   0.272   0.262   0.264   0.257   0.302   0.311   0.301   0.301   0.303   0.303
 1991 213    49   598   300      9      8    178     0     0   200    0.00   0.0   0.0   0.04   0.324   0.275   0.281   0.260   0.305   0.311   0.300   0.301   0.302   0.303
 1991 214    50   592   294      9      8    178     0     0   200    0.00   0.0   0.0   0.00   0.268   0.251   0.253   0.255   0.312   0.315   0.302   0.301   0.302   0.303
 1991 215    51   587   289      9      8    178     0     0   200    0.00   0.0   0.0   0.00   0.247   0.239   0.239   0.247   0.309   0.314   0.302   0.300   0.302   0.302
 1991 216    52   582   284      9      8    178     0     0   200    0.00   0.0   0.0   0.00   0.223   0.223   0.224   0.238   0.305   0.314   0.302   0.300   0.302   0.302
 1991 217    53   598   300     11      8    201     0     0   200    0.00   0.0   0.0   2.13   0.328   0.295   0.289   0.250   0.301   0.313   0.302   0.300   0.302   0.302
 1991 218    54   602   304     11      8    209     0     0   200    0.00   0.0   0.0   0.03   0.328   0.291   0.311   0.264   0.308   0.312   0.302   0.300   0.302   0.302
 1991 219    55   598   300     11      8    209     0     0   200    0.00   0.0   0.0   0.00   0.274   0.260   0.269   0.257   0.312   0.315   0.304   0.304   0.305   0.305
 1991 220    56   601   303     11      8    216     0     0   200    0.00   0.0   0.0   0.00   0.322   0.265   0.272   0.259   0.312   0.314   0.304   0.304   0.305   0.305
 1991 221    57   596   298     11      9    216     0     0   200    0.00   0.0   0.0   0.00   0.272   0.250   0.253   0.257   0.312   0.315   0.304   0.304   0.305   0.305
 1991 222    58   599   301     11      9    224     0     0   200    0.00   0.0   0.0   0.00   0.324   0.263   0.263   0.258   0.308   0.313   0.304   0.304   0.305   0.305
 1991 223    59   596   297     11      9    224     0     0   200    0.00   0.0   0.0   0.00   0.275   0.252   0.252   0.258   0.312   0.312   0.304   0.304   0.305   0.305
 1991 224    60   591   293     11      9    224     0     0   200    0.00   0.0   0.0   0.00   0.253   0.244   0.240   0.251   0.307   0.310   0.303   0.304   0.305   0.305
 1991 225    61   586   288     11      9    224     0     0   200    0.00   0.0   0.0   0.00   0.236   0.232   0.228   0.244   0.303   0.308   0.303   0.304   0.305   0.305
 1991 226    62   581   283     11      9    224     0     0   200    0.00   0.0   0.0   0.00   0.218   0.220   0.216   0.237   0.297   0.305   0.303   0.304   0.305   0.305
 1991 227    63   601   303     14      9    250     0     0   200    0.00   0.0   0.0   3.18   0.335   0.307   0.301   0.254   0.292   0.302   0.303   0.303   0.305   0.305
 1991 228    64   612   314     16      9    266     0     0   200    0.00   0.0   0.0   1.57   0.330   0.320   0.320   0.283   0.317   0.307   0.303   0.303   0.304   0.305
 1991 229    65   602   304     16     16    266     0     0   200    0.00   0.0   0.0   0.00   0.281   0.277   0.277   0.267   0.313   0.314   0.304   0.304   0.305   0.305
 1991 230    66   596   298     16     18    266     0     0   200    0.00   0.0   0.0   0.00   0.260   0.259   0.259   0.260   0.312   0.313   0.304   0.304   0.305   0.305
 1991 231    67   592   294     16     18    266     0     0   200    0.00   0.0   0.0   0.00   0.244   0.249   0.249   0.254   0.306   0.310   0.304   0.304   0.305   0.305
 1991 232    68   613   315     22     18    299     0     0   200    0.00   0.0   0.0   6.35   0.329   0.319   0.319   0.278   0.319   0.315   0.305   0.306   0.305   0.305
 1991 233    69   600   302     22     26    299     0     0   200    0.00   0.0   0.0   0.00   0.276   0.273   0.273   0.263   0.313   0.312   0.305   0.306   0.305   0.305
 1991 234    70   595   297     22     26    299     0     0   200    0.00   0.0   0.0   0.00   0.255   0.254   0.255   0.257   0.309   0.311   0.305   0.306   0.305   0.305
 1991 235    71   591   293     22     26    299     0     0   200    0.00   0.0   0.0   0.00   0.246   0.247   0.247   0.251   0.304   0.307   0.305   0.305   0.305   0.305
 1991 236    72   612   314     28     26    329     0     0   200    0.00   0.0   0.0   5.41   0.332   0.322   0.322   0.275   0.317   0.310   0.305   0.305   0.305   0.305
 1991 237    73   600   302     28     34    329     0     0   200    0.00   0.0   0.0   0.00   0.279   0.276   0.276   0.262   0.311   0.311   0.305   0.305   0.305   0.305
 1991 238    74   595   297     28     34    329     0     0   200    0.00   0.0   0.0   0.00   0.256   0.256   0.256   0.256   0.309   0.310   0.304   0.305   0.305   0.305
 1991 239    75   590   291     28     34    329     0     0   200    0.00   0.0   0.0   0.00   0.245   0.245   0.246   0.249   0.303   0.305   0.304   0.305   0.305   0.305
 1991 240    76   586   288     28     34    329     0     0   200    0.00   0.0   0.0   0.00   0.237   0.238   0.239   0.244   0.298   0.300   0.304   0.305   0.305   0.305
 1991 241    77   583   284     28     34    329     0     0   200    0.00   0.0   0.0   0.00   0.230   0.231   0.232   0.239   0.294   0.297   0.304   0.305   0.305   0.305
 1991 242    78   577   279     28     34    329     0     0   200    0.00   0.0   0.0   0.00   0.219   0.222   0.222   0.232   0.288   0.291   0.304   0.305   0.304   0.304
 1991 243    79   573   275     28     34    329     0     0   200    0.00   0.0   0.0   0.00   0.213   0.216   0.216   0.225   0.283   0.286   0.304   0.304   0.304   0.304
 1991 244    80   594   295     32     34    357     0     0   200    0.00   0.0   0.0   3.83   0.335   0.310   0.304   0.241   0.276   0.279   0.303   0.304   0.304   0.304
 1991 245    81   589   291     32     34    357     0     0   200    0.00   0.0   0.0   0.00   0.280   0.271   0.269   0.258   0.291   0.274   0.303   0.304   0.304   0.304
 1991 246    82   585   287     32     34    357     0     0   200    0.00   0.0   0.0   0.00   0.258   0.256   0.255   0.258   0.290   0.269   0.303   0.304   0.304   0.304
 1991 247    83   579   281     32     34    357     0     0   200    0.00   0.0   0.0   0.00   0.240   0.245   0.245   0.250   0.284   0.264   0.303   0.304   0.304   0.304
 1991 248    84   574   276     32     34    357     0     0   200    0.00   0.0   0.0   0.00   0.223   0.236   0.236   0.243   0.278   0.258   0.303   0.304   0.304   0.304
 1991 249    85   569   271     32     34    357     0     0   200    0.00   0.0   0.0   0.00   0.206   0.225   0.225   0.235   0.272   0.252   0.303   0.304   0.304   0.304
 1991 250    86   563   265     32     34    357     0     0   200    0.00   0.0   0.0   0.00   0.195   0.215   0.216   0.225   0.265   0.245   0.303   0.304   0.304   0.304
 1991 251    87   558   260     32     34    357     0     0   200    0.00   0.0   0.0   0.00   0.185   0.210   0.210   0.214   0.257   0.237   0.303   0.304   0.304   0.304
 1991 252    88   553   255     32     34    357     0     0   200    0.00   0.0   0.0   0.00   0.176   0.206   0.207   0.203   0.249   0.229   0.303   0.304   0.304   0.304
 1991 253    89   548   250     32     34    357     0     0   200    0.00   0.0   0.0   0.00   0.167   0.203   0.204   0.191   0.241   0.221   0.303   0.304   0.304   0.304
 1991 254    90   562   263     32     34    376     0     0   200    0.00   0.0   0.0   0.61   0.332   0.274   0.251   0.180   0.233   0.214   0.303   0.304   0.304   0.304
 1991 255    91   574   276     34     34    395     0     0   200    0.00   0.0   0.0   2.12   0.329   0.321   0.321   0.219   0.228   0.209   0.303   0.304   0.304   0.304
 1991 256    92   568   270     34     34    395     0     0   200    0.00   0.0   0.0   0.00   0.276   0.274   0.275   0.254   0.227   0.203   0.302   0.303   0.303   0.304
 1991 257    93   563   264     34     34    395     0     0   200    0.00   0.0   0.0   0.00   0.255   0.256   0.256   0.254   0.223   0.197   0.302   0.303   0.303   0.303
 1991 258    94   557   259     34     34    395     0     0   200    0.00   0.0   0.0   0.00   0.236   0.246   0.247   0.245   0.217   0.191   0.302   0.303   0.303   0.303
 1991 259    95   551   253     34     34    395     0     0   200    0.00   0.0   0.0   0.00   0.216   0.236   0.237   0.236   0.211   0.185   0.302   0.303   0.303   0.303
 1991 260    96   546   247     34     34    395     0     0   200    0.00   0.0   0.0   0.00   0.202   0.225   0.227   0.226   0.205   0.179   0.302   0.303   0.303   0.303
 1991 261    97   541   243     34     34    395     0     0   200    0.00   0.0   0.0   0.00   0.193   0.218   0.219   0.218   0.200   0.173   0.302   0.303   0.303   0.303
 1991 262    98   536   238     34     34    395     0     0   200    0.00   0.0   0.0   0.00   0.184   0.212   0.214   0.207   0.192   0.168   0.302   0.303   0.303   0.303
 1991 263    99   531   232     34     34    395     0     0   200    0.00   0.0   0.0   0.00   0.173   0.207   0.209   0.192   0.182   0.163   0.302   0.303   0.303   0.303
 1991 264   100   526   227     34     34    395     0     0   200    0.00   0.0   0.0   0.00   0.164   0.204   0.205   0.178   0.173   0.160   0.302   0.303   0.303   0.303
 1991 265   101   523   225     34     34    395     0     0   200    0.00   0.0   0.0   0.00   0.159   0.202   0.203   0.168   0.168   0.158   0.302   0.303   0.303   0.303
 1991 266   102   518   219     34     34    395     0     0   200    0.00   0.0   0.0   0.00   0.150   0.198   0.199   0.154   0.159   0.155   0.302   0.303   0.303   0.303
 1991 267   103   514   216     34     34    395     0     0   200    0.00   0.0   0.0   0.00   0.143   0.193   0.194   0.147   0.152   0.150   0.302   0.303   0.303   0.303
 1991 268   104   509   211     34     34    395     0     0   200    0.00   0.0   0.0   0.00   0.135   0.186   0.187   0.140   0.145   0.144   0.302   0.303   0.303   0.303
 1991 269   105   506   207     34     34    395     0     0   200    0.00   0.0   0.0   0.00   0.127   0.181   0.182   0.135   0.140   0.139   0.302   0.303   0.303   0.303
 1991 270   106   503   205     34     34    395     0     0   200    0.00   0.0   0.0   0.00   0.120   0.177   0.179   0.131   0.136   0.136   0.302   0.303   0.303   0.303
 1991 271   107   501   203     34     34    395     0     0   200    0.00   0.0   0.0   0.00   0.114   0.174   0.176   0.129   0.134   0.134   0.302   0.303   0.303   0.303
 1991 272   108   500   202     34     34    395     0     0   200    0.00   0.0   0.0   0.00   0.108   0.172   0.174   0.127   0.132   0.132   0.302   0.303   0.303   0.303
 1991 273   109   498   200     34     34    395     0     0   200    0.00   0.0   0.0   0.00   0.103   0.169   0.172   0.125   0.130   0.130   0.302   0.303   0.303   0.303
 1991 274   110   497   199     34     34    395     0     0   200    0.00   0.0   0.0   0.00   0.098   0.168   0.170   0.124   0.129   0.129   0.302   0.303   0.303   0.303
 1991 275   111   496   198     34     34    395     0     0   200    0.00   0.0   0.0   0.00   0.093   0.166   0.168   0.123   0.128   0.128   0.302   0.303   0.303   0.303
 1991 276   112   495   197     34     34    395     0     0   200    0.00   0.0   0.0   0.00   0.089   0.165   0.167   0.121   0.126   0.126   0.302   0.303   0.303   0.303
 1991 277   113   495   197     34     34    395     0     0   200    0.00   0.0   0.0   0.00   0.086   0.165   0.166   0.121   0.125   0.125   0.302   0.303   0.303   0.303
 1991 278   114   494   196     34     34    395     0     0   200    0.00   0.0   0.0   0.00   0.083   0.164   0.166   0.121   0.125   0.125   0.302   0.303   0.303   0.303
 1991 279   115   499   201     34     34    401     0     0   200    0.00   0.0   0.0   0.00   0.183   0.163   0.166   0.121   0.124   0.124   0.302   0.303   0.303   0.303
 1991 280   116   498   200     34     34    401     0     0   200    0.00   0.0   0.0   0.00   0.167   0.163   0.165   0.121   0.123   0.123   0.302   0.303   0.303   0.303
 1991 281   117   497   199     34     34    401     0     0   200    0.00   0.0   0.0   0.00   0.157   0.162   0.165   0.121   0.122   0.122   0.302   0.303   0.303   0.303
 1991 282   118   496   198     34     34    401     0     0   200    0.00   0.0   0.0   0.00   0.147   0.161   0.165   0.121   0.121   0.122   0.302   0.303   0.303   0.303
 1991 283   119   495   197     34     34    401     0     0   200    0.00   0.0   0.0   0.00   0.138   0.161   0.165   0.121   0.121   0.121   0.302   0.303   0.303   0.303
 1991 284   120   495   197     34     34    401     0     0   200    0.00   0.0   0.0   0.00   0.130   0.160   0.164   0.121   0.121   0.121   0.301   0.303   0.303   0.303
 1991 285   121   494   196     34     34    401     0     0   200    0.00   0.0   0.0   0.00   0.123   0.159   0.164   0.120   0.121   0.121   0.301   0.303   0.303   0.303
 1991 286   122   494   196     34     34    401     0     0   200    0.00   0.0   0.0   0.00   0.116   0.159   0.164   0.120   0.121   0.121   0.301   0.303   0.303   0.303
 1991 287   123   494   195     34     34    401     0     0   200    0.00   0.0   0.0   0.00   0.110   0.158   0.164   0.120   0.121   0.121   0.301   0.303   0.303   0.303
 1991 288   124   493   195     34     34    401     0     0   200    0.00   0.0   0.0   0.00   0.105   0.158   0.164   0.120   0.121   0.121   0.301   0.303   0.303   0.303
 1991 289   125   493   195     34     34    401     0     0   200    0.00   0.0   0.0   0.00   0.100   0.157   0.163   0.120   0.121   0.121   0.301   0.303   0.303   0.303
 1991 290   126   493   194     34     34    401     0     0   200    0.00   0.0   0.0   0.00   0.095   0.156   0.163   0.120   0.121   0.121   0.301   0.303   0.303   0.303
 1991 291   127   492   194     34     34    401     0     0   200    0.00   0.0   0.0   0.00   0.091   0.156   0.163   0.120   0.121   0.121   0.301   0.303   0.303   0.303
 1991 292   128   492   194     34     34    401     0     0   200    0.00   0.0   0.0   0.00   0.087   0.155   0.163   0.120   0.121   0.121   0.301   0.303   0.303   0.303

*DSSAT Cropping System Model Ver. 4.7.5.008 -release  JAN 15, 2021 21:49:57

*RUN   2        : ERiMA DCC1                MZCER047 ETMZpolo    1
 MODEL          : MZCER047 - Maize
 EXPERIMENT     : ETMZpolo SN MELKSSAL
 DATA PATH      : C:\Users\kpodo\Documents\GitHub\ET_DSS_hist_Eunjin\TEST\
 TREATMENT  1   : ERiMA DCC1                MZCER047
  
!                                                                                                 Soil water content (mm3/mm3) by soil depth (cm):
!                                                                                                 0-5    5-15   15-20   20-35   35-50   50-65   65-81   81-97  97-118 118-200
@YEAR DOY   DAS  SWTD  SWXD   ROFC   DRNC   PREC  IR#C  IRRC  DTWT    MWTD  TDFD  TDFC   ROFD    SW1D    SW2D    SW3D    SW4D    SW5D    SW6D    SW7D    SW8D    SW9D    SW10
 1992 164     0   586   288      0      0      0     0     0     0    0.00   0.0   0.0   0.00   0.231   0.231   0.231   0.221   0.316   0.316   0.304   0.304   0.305   0.305
 1992 165     1   585   287      0      0      0     0     0   100    0.00   0.0   0.0   0.00   0.215   0.230   0.231   0.221   0.316   0.316   0.304   0.304   0.305   0.305
 1992 166     2   587   289      0      0      7     0     0   200    0.00   0.0   0.0   0.00   0.287   0.250   0.226   0.218   0.312   0.313   0.302   0.302   0.303   0.303
 1992 167     3   581   283      0      0      7     0     0   200    0.00   0.0   0.0   0.00   0.249   0.251   0.222   0.214   0.308   0.310   0.299   0.300   0.301   0.302
 1992 168     4   580   282      0      0      7     0     0   200    0.00   0.0   0.0   0.00   0.230   0.250   0.221   0.214   0.308   0.310   0.299   0.300   0.301   0.302
 1992 169     5   579   281      0      0      7     0     0   200    0.00   0.0   0.0   0.00   0.214   0.248   0.221   0.214   0.308   0.310   0.299   0.300   0.301   0.302
 1992 170     6   584   286      0      0     19     0     0   200    0.00   0.0   0.0   0.02   0.318   0.268   0.259   0.212   0.305   0.307   0.297   0.298   0.300   0.300
 1992 171     7   579   281      0      0     19     0     0   200    0.00   0.0   0.0   0.00   0.261   0.255   0.255   0.223   0.301   0.304   0.294   0.296   0.298   0.299
 1992 172     8   573   275      0      0     19     0     0   200    0.00   0.0   0.0   0.00   0.239   0.248   0.250   0.220   0.297   0.301   0.292   0.294   0.296   0.297
 1992 173     9   572   274      0      0     19     0     0   200    0.00   0.0   0.0   0.00   0.222   0.246   0.249   0.220   0.297   0.301   0.292   0.293   0.296   0.297
 1992 174    10   571   273      0      0     19     0     0   200    0.00   0.0   0.0   0.00   0.206   0.245   0.249   0.220   0.297   0.301   0.292   0.293   0.296   0.297
 1992 175    11   570   272      0      0     19     0     0   200    0.00   0.0   0.0   0.00   0.191   0.243   0.248   0.219   0.297   0.301   0.292   0.293   0.296   0.297
 1992 176    12   569   271      0      0     19     0     0   200    0.00   0.0   0.0   0.00   0.178   0.241   0.248   0.219   0.297   0.301   0.292   0.293   0.296   0.297
 1992 177    13   568   270      0      0     19     0     0   200    0.00   0.0   0.0   0.00   0.167   0.238   0.247   0.219   0.297   0.301   0.292   0.293   0.296   0.297
 1992 178    14   581   283      0      0     33     0     0   200    0.00   0.0   0.0   0.13   0.321   0.271   0.271   0.225   0.297   0.301   0.292   0.293   0.296   0.297
 1992 179    15   575   277      0      0     33     0     0   200    0.00   0.0   0.0   0.00   0.260   0.255   0.259   0.241   0.294   0.298   0.290   0.292   0.294   0.296
 1992 180    16   584   286      1      0     48     0     0   200    0.00   0.0   0.0   0.49   0.318   0.291   0.301   0.261   0.291   0.296   0.288   0.290   0.293   0.294
 1992 181    17   593   295      2      0     63     0     0   200    0.00   0.0   0.0   0.95   0.315   0.313   0.323   0.281   0.315   0.297   0.286   0.288   0.292   0.293
 1992 182    18   588   290      2      0     63     0     0   200    0.00   0.0   0.0   0.00   0.264   0.273   0.280   0.268   0.314   0.314   0.302   0.302   0.291   0.292
 1992 183    19   583   285      2      0     63     0     0   200    0.00   0.0   0.0   0.00   0.241   0.256   0.262   0.262   0.313   0.314   0.302   0.302   0.292   0.291
 1992 184    20   578   279      2      0     63     0     0   200    0.00   0.0   0.0   0.00   0.221   0.246   0.255   0.258   0.310   0.311   0.300   0.301   0.291   0.290
 1992 185    21   595   297      4      0     87     0     0   200    0.00   0.0   0.0   2.74   0.326   0.309   0.321   0.272   0.318   0.316   0.299   0.300   0.290   0.289
 1992 186    22   590   292      4      0     87     0     0   200    0.00   0.0   0.0   0.00   0.265   0.269   0.277   0.264   0.316   0.314   0.302   0.303   0.304   0.301
 1992 187    23   586   288      4      0     87     0     0   200    0.00   0.0   0.0   0.00   0.245   0.255   0.260   0.261   0.314   0.314   0.303   0.303   0.304   0.301
 1992 188    24   581   283      4      0     87     0     0   200    0.00   0.0   0.0   0.00   0.227   0.245   0.253   0.257   0.312   0.312   0.301   0.301   0.303   0.300
 1992 189    25   578   280      4      0     87     0     0   200    0.00   0.0   0.0   0.00   0.205   0.237   0.247   0.255   0.311   0.312   0.301   0.301   0.303   0.300
 1992 190    26   576   278      4      0     87     0     0   200    0.00   0.0   0.0   0.00   0.189   0.228   0.239   0.252   0.311   0.312   0.301   0.301   0.303   0.300
 1992 191    27   573   275      4      0     87     0     0   200    0.00   0.0   0.0   0.00   0.176   0.219   0.230   0.249   0.311   0.312   0.301   0.301   0.303   0.300
 1992 192    28   571   273      4      0     87     0     0   200    0.00   0.0   0.0   0.00   0.165   0.213   0.219   0.244   0.311   0.312   0.301   0.301   0.303   0.300
 1992 193    29   568   270      4      0     87     0     0   200    0.00   0.0   0.0   0.00   0.154   0.206   0.211   0.236   0.311   0.312   0.301   0.301   0.303   0.300
 1992 194    30   571   273      4      0     93     0     0   200    0.00   0.0   0.0   0.00   0.253   0.206   0.205   0.226   0.310   0.312   0.301   0.301   0.303   0.300
 1992 195    31   572   274      4      0     99     0     0   200    0.00   0.0   0.0   0.00   0.283   0.230   0.201   0.216   0.308   0.311   0.300   0.300   0.302   0.299
 1992 196    32   572   274      4      0    104     0     0   200    0.00   0.0   0.0   0.00   0.299   0.246   0.204   0.209   0.307   0.309   0.299   0.300   0.301   0.298
 1992 197    33   579   281      5      0    116     0     0   200    0.00   0.0   0.0   0.18   0.321   0.278   0.273   0.212   0.305   0.309   0.298   0.299   0.301   0.298
 1992 198    34   588   290      5      0    130     0     0   200    0.00   0.0   0.0   0.72   0.324   0.304   0.319   0.244   0.304   0.308   0.298   0.298   0.300   0.298
 1992 199    35   585   287      5      0    130     0     0   200    0.00   0.0   0.0   0.00   0.274   0.268   0.275   0.260   0.315   0.315   0.298   0.298   0.300   0.297
 1992 200    36   580   282      5      0    130     0     0   200    0.00   0.0   0.0   0.00   0.249   0.249   0.253   0.258   0.315   0.315   0.301   0.297   0.299   0.297
 1992 201    37   576   278      5      0    130     0     0   200    0.00   0.0   0.0   0.00   0.220   0.235   0.242   0.252   0.314   0.315   0.301   0.297   0.299   0.297
 1992 202    38   592   294      7      0    150     0     0   200    0.00   0.0   0.0   1.49   0.334   0.295   0.297   0.264   0.317   0.317   0.300   0.297   0.299   0.297
 1992 203    39   589   291      7      0    150     0     0   200    0.00   0.0   0.0   0.00   0.277   0.263   0.264   0.259   0.316   0.317   0.304   0.304   0.305   0.305
 1992 204    40   584   286      7      0    150     0     0   200    0.00   0.0   0.0   0.00   0.250   0.247   0.248   0.256   0.315   0.316   0.303   0.303   0.304   0.304
 1992 205    41   594   296      7      0    165     0     0   200    0.00   0.0   0.0   0.42   0.326   0.281   0.283   0.261   0.317   0.318   0.303   0.303   0.304   0.304
 1992 206    42   604   306      8      0    180     0     0   200    0.00   0.0   0.0   0.94   0.329   0.310   0.319   0.275   0.325   0.323   0.307   0.305   0.306   0.304
 1992 207    43   612   314      9      0    194     0     0   200    0.00   0.0   0.0   1.13   0.324   0.314   0.314   0.288   0.337   0.332   0.314   0.311   0.308   0.306
 1992 208    44   604   306      9      4    194     0     0   200    0.00   0.0   0.0   0.00   0.273   0.268   0.268   0.265   0.323   0.322   0.308   0.306   0.306   0.306
 1992 209    45   626   328     18      4    230     0     0   200    0.00   0.0   0.0   8.42   0.328   0.317   0.317   0.295   0.340   0.333   0.315   0.312   0.309   0.308
 1992 210    46   608   310     18     20    230     0     0   200    0.00   0.0   0.0   0.00   0.280   0.276   0.276   0.272   0.324   0.322   0.308   0.307   0.306   0.307
 1992 211    47   599   300     18     24    230     0     0   200    0.00   0.0   0.0   0.00   0.255   0.253   0.253   0.258   0.316   0.318   0.305   0.307   0.306   0.307
 1992 212    48   594   296     18     24    230     0     0   200    0.00   0.0   0.0   0.00   0.240   0.240   0.240   0.251   0.313   0.317   0.305   0.306   0.306   0.307
 1992 213    49   590   292     18     24    230     0     0   200    0.00   0.0   0.0   0.00   0.228   0.230   0.230   0.244   0.310   0.316   0.305   0.306   0.306   0.307
 1992 214    50   587   289     18     24    230     0     0   200    0.00   0.0   0.0   0.00   0.218   0.222   0.221   0.239   0.308   0.315   0.305   0.306   0.306   0.307
 1992 215    51   583   285     18     24    230     0     0   200    0.00   0.0   0.0   0.00   0.209   0.212   0.212   0.229   0.305   0.314   0.305   0.306   0.306   0.307
 1992 216    52   605   307     23     24    262     0     0   200    0.00   0.0   0.0   5.31   0.332   0.315   0.308   0.242   0.299   0.312   0.304   0.306   0.305   0.307
 1992 217    53   618   320     25     24    280     0     0   200    0.00   0.0   0.0   2.23   0.330   0.321   0.321   0.286   0.323   0.319   0.306   0.306   0.308   0.306
 1992 218    54   605   307     25     35    280     0     0   200    0.00   0.0   0.0   0.00   0.279   0.277   0.277   0.268   0.317   0.317   0.306   0.306   0.308   0.306
 1992 219    55   597   299     25     37    280     0     0   200    0.00   0.0   0.0   0.00   0.251   0.253   0.253   0.257   0.313   0.315   0.306   0.306   0.308   0.306
 1992 220    56   629   331     42     37    331     0     0   199    0.00   0.0   0.0  17.09   0.332   0.323   0.323   0.305   0.340   0.330   0.313   0.310   0.309   0.308
 1992 221    57   609   311     42     54    331     0     0   199    0.00   0.0   0.0   0.00   0.280   0.278   0.278   0.276   0.324   0.321   0.308   0.306   0.306   0.308
 1992 222    58   600   302     42     59    331     0     0   199    0.00   0.0   0.0   0.00   0.255   0.256   0.256   0.262   0.316   0.316   0.305   0.306   0.306   0.308
 1992 223    59   597   299     42     59    331     0     0   199    0.00   0.0   0.0   0.00   0.246   0.248   0.248   0.257   0.314   0.315   0.305   0.306   0.306   0.307
 1992 224    60   593   295     42     59    331     0     0   199    0.00   0.0   0.0   0.00   0.234   0.238   0.238   0.250   0.311   0.314   0.305   0.306   0.306   0.307
 1992 225    61   589   291     42     59    331     0     0   199    0.00   0.0   0.0   0.00   0.223   0.228   0.228   0.244   0.309   0.312   0.305   0.306   0.306   0.307
 1992 226    62   607   309     45     59    354     0     0   199    0.00   0.0   0.0   2.40   0.332   0.300   0.297   0.259   0.308   0.310   0.305   0.306   0.306   0.307
 1992 227    63   601   303     45     62    354     0     0   199    0.00   0.0   0.0   0.00   0.279   0.268   0.266   0.259   0.314   0.314   0.305   0.306   0.306   0.307
 1992 228    64   598   300     45     62    354     0     0   199    0.00   0.0   0.0   0.00   0.257   0.254   0.253   0.258   0.314   0.313   0.305   0.306   0.306   0.307
 1992 229    65   594   296     45     62    354     0     0   199    0.00   0.0   0.0   0.00   0.248   0.245   0.244   0.253   0.311   0.311   0.305   0.306   0.306   0.307
 1992 230    66   602   303     45     62    366     0     0   199    0.00   0.0   0.0   0.08   0.327   0.271   0.269   0.255   0.308   0.308   0.304   0.305   0.306   0.307
 1992 231    67   623   325     54     62    402     0     0   200    0.00   0.0   0.0   9.30   0.329   0.320   0.320   0.299   0.335   0.324   0.310   0.308   0.307   0.307
 1992 232    68   630   332     55     63    413     0     0   200    0.00   0.0   0.0   0.59   0.330   0.318   0.321   0.298   0.345   0.336   0.318   0.314   0.310   0.309
 1992 233    69   607   309     55     82    413     0     0   200    0.00   0.0   0.0   0.00   0.276   0.271   0.273   0.270   0.325   0.321   0.310   0.308   0.307   0.306
 1992 234    70   598   300     55     86    413     0     0   200    0.00   0.0   0.0   0.00   0.253   0.252   0.253   0.258   0.316   0.315   0.306   0.305   0.307   0.306
 1992 235    71   595   297     55     86    413     0     0   200    0.00   0.0   0.0   0.00   0.243   0.243   0.244   0.252   0.314   0.312   0.306   0.305   0.307   0.306
 1992 236    72   607   309     55     86    431     0     0   200    0.00   0.0   0.0   0.84   0.328   0.289   0.291   0.261   0.315   0.312   0.306   0.305   0.307   0.306
 1992 237    73   599   301     55     89    431     0     0   200    0.00   0.0   0.0   0.00   0.274   0.259   0.260   0.256   0.313   0.313   0.306   0.305   0.307   0.306
 1992 238    74   610   312     57     89    448     0     0   200    0.00   0.0   0.0   1.11   0.327   0.300   0.310   0.265   0.317   0.316   0.306   0.305   0.307   0.306
 1992 239    75   621   323     58     90    465     0     0   200    0.00   0.0   0.0   1.68   0.328   0.319   0.319   0.286   0.331   0.324   0.311   0.308   0.308   0.307
 1992 240    76   631   333     60     91    482     0     0   200    0.00   0.0   0.0   1.83   0.328   0.318   0.319   0.300   0.346   0.336   0.319   0.315   0.311   0.309
 1992 241    77   608   310     60    110    482     0     0   200    0.00   0.0   0.0   0.00   0.275   0.272   0.272   0.271   0.325   0.321   0.310   0.308   0.307   0.307
 1992 242    78   599   301     60    114    482     0     0   200    0.00   0.0   0.0   0.00   0.254   0.254   0.254   0.259   0.317   0.315   0.306   0.306   0.307   0.306
 1992 243    79   595   297     60    114    482     0     0   200    0.00   0.0   0.0   0.00   0.243   0.243   0.244   0.252   0.314   0.312   0.306   0.305   0.307   0.306
 1992 244    80   606   308     61    114    499     0     0   200    0.00   0.0   0.0   0.80   0.326   0.286   0.288   0.258   0.316   0.309   0.306   0.305   0.307   0.306
 1992 245    81   598   300     61    117    499     0     0   200    0.00   0.0   0.0   0.00   0.273   0.258   0.259   0.255   0.313   0.313   0.306   0.305   0.307   0.306
 1992 246    82   595   297     61    117    499     0     0   200    0.00   0.0   0.0   0.00   0.256   0.252   0.252   0.250   0.311   0.311   0.305   0.305   0.307   0.306
 1992 247    83   591   293     61    117    499     0     0   200    0.00   0.0   0.0   0.00   0.244   0.241   0.241   0.242   0.308   0.308   0.305   0.305   0.306   0.306
 1992 248    84   586   288     61    117    499     0     0   200    0.00   0.0   0.0   0.00   0.231   0.229   0.229   0.233   0.305   0.305   0.305   0.305   0.306   0.306
 1992 249    85   582   284     61    117    499     0     0   200    0.00   0.0   0.0   0.00   0.222   0.221   0.221   0.227   0.302   0.302   0.305   0.304   0.306   0.306
 1992 250    86   591   293     61    117    511     0     0   200    0.00   0.0   0.0   0.02   0.331   0.262   0.241   0.219   0.300   0.299   0.305   0.304   0.306   0.305
 1992 251    87   598   300     61    117    523     0     0   200    0.00   0.0   0.0   0.39   0.328   0.295   0.297   0.234   0.297   0.297   0.305   0.304   0.306   0.305
 1992 252    88   615   317     67    117    550     0     0   200    0.00   0.0   0.0   5.56   0.328   0.319   0.319   0.287   0.324   0.310   0.304   0.304   0.306   0.305
 1992 253    89   603   305     67    126    550     0     0   200    0.00   0.0   0.0   0.00   0.279   0.276   0.276   0.266   0.317   0.314   0.304   0.304   0.306   0.305
 1992 254    90   597   299     67    128    550     0     0   200    0.00   0.0   0.0   0.00   0.257   0.257   0.257   0.258   0.314   0.313   0.304   0.304   0.306   0.305
 1992 255    91   594   296     67    128    550     0     0   200    0.00   0.0   0.0   0.00   0.249   0.250   0.250   0.252   0.312   0.311   0.304   0.304   0.305   0.305
 1992 256    92   589   291     67    128    550     0     0   200    0.00   0.0   0.0   0.00   0.232   0.240   0.241   0.243   0.310   0.309   0.304   0.304   0.305   0.305
 1992 257    93   585   287     67    128    550     0     0   200    0.00   0.0   0.0   0.00   0.217   0.231   0.233   0.235   0.308   0.306   0.304   0.304   0.305   0.305
 1992 258    94   581   283     67    128    550     0     0   200    0.00   0.0   0.0   0.00   0.206   0.222   0.224   0.226   0.305   0.304   0.304   0.304   0.305   0.305
 1992 259    95   577   279     67    128    550     0     0   200    0.00   0.0   0.0   0.00   0.196   0.214   0.215   0.214   0.302   0.300   0.304   0.304   0.305   0.305
 1992 260    96   572   274     67    128    550     0     0   200    0.00   0.0   0.0   0.00   0.187   0.209   0.210   0.201   0.298   0.296   0.304   0.304   0.305   0.305
 1992 261    97   568   270     67    128    550     0     0   200    0.00   0.0   0.0   0.00   0.179   0.205   0.206   0.187   0.293   0.292   0.304   0.304   0.305   0.305
 1992 262    98   579   281     67    128    566     0     0   200    0.00   0.0   0.0   0.14   0.331   0.264   0.223   0.173   0.289   0.287   0.304   0.304   0.305   0.305
 1992 263    99   589   291     68    128    581     0     0   200    0.00   0.0   0.0   1.03   0.328   0.307   0.306   0.192   0.286   0.284   0.304   0.303   0.305   0.305
 1992 264   100   598   300     69    128    596     0     0   200    0.00   0.0   0.0   1.28   0.329   0.320   0.320   0.249   0.283   0.281   0.303   0.303   0.305   0.305
 1992 265   101   606   308     70    128    610     0     0   200    0.00   0.0   0.0   1.09   0.326   0.318   0.318   0.277   0.315   0.278   0.303   0.303   0.305   0.304
 1992 266   102   599   301     70    130    610     0     0   200    0.00   0.0   0.0   0.00   0.273   0.271   0.272   0.258   0.312   0.312   0.304   0.304   0.305   0.305
 1992 267   103   593   295     70    130    610     0     0   200    0.00   0.0   0.0   0.00   0.253   0.253   0.254   0.253   0.312   0.308   0.303   0.304   0.305   0.305
 1992 268   104   588   290     70    130    610     0     0   200    0.00   0.0   0.0   0.00   0.232   0.242   0.243   0.243   0.308   0.305   0.303   0.304   0.305   0.305
 1992 269   105   583   284     70    130    610     0     0   200    0.00   0.0   0.0   0.00   0.210   0.231   0.232   0.232   0.304   0.301   0.303   0.304   0.305   0.305
 1992 270   106   577   279     70    130    610     0     0   200    0.00   0.0   0.0   0.00   0.197   0.219   0.221   0.221   0.300   0.297   0.303   0.304   0.305   0.305
 1992 271   107   572   274     70    130    610     0     0   200    0.00   0.0   0.0   0.00   0.187   0.212   0.213   0.208   0.296   0.292   0.303   0.304   0.305   0.305
 1992 272   108   568   270     70    130    610     0     0   200    0.00   0.0   0.0   0.00   0.177   0.208   0.209   0.195   0.291   0.288   0.303   0.303   0.305   0.305
 1992 273   109   564   266     70    130    610     0     0   200    0.00   0.0   0.0   0.00   0.169   0.204   0.206   0.183   0.287   0.283   0.303   0.303   0.305   0.305
 1992 274   110   559   261     70    130    610     0     0   200    0.00   0.0   0.0   0.00   0.159   0.201   0.203   0.168   0.281   0.277   0.303   0.303   0.305   0.305
 1992 275   111   553   255     70    130    610     0     0   200    0.00   0.0   0.0   0.00   0.149   0.198   0.199   0.156   0.272   0.268   0.303   0.303   0.305   0.305
 1992 276   112   549   251     70    130    610     0     0   200    0.00   0.0   0.0   0.00   0.141   0.194   0.197   0.151   0.263   0.259   0.303   0.303   0.305   0.305
 1992 277   113   545   247     70    130    610     0     0   200    0.00   0.0   0.0   0.00   0.134   0.192   0.194   0.149   0.255   0.251   0.303   0.303   0.305   0.305
 1992 278   114   542   243     70    130    610     0     0   200    0.00   0.0   0.0   0.00   0.126   0.190   0.192   0.146   0.246   0.241   0.303   0.303   0.305   0.305
 1992 279   115   537   239     70    130    610     0     0   200    0.00   0.0   0.0   0.00   0.119   0.188   0.191   0.144   0.235   0.231   0.303   0.303   0.304   0.305
 1992 280   116   533   235     70    130    610     0     0   200    0.00   0.0   0.0   0.00   0.113   0.186   0.189   0.142   0.224   0.220   0.303   0.303   0.304   0.305
 1992 281   117   529   231     70    130    610     0     0   200    0.00   0.0   0.0   0.00   0.107   0.184   0.187   0.141   0.214   0.209   0.303   0.303   0.304   0.305
 1992 282   118   547   248     71    130    633     0     0   200    0.00   0.0   0.0   0.86   0.329   0.267   0.213   0.140   0.203   0.198   0.303   0.303   0.304   0.305
 1992 283   119   541   243     71    130    633     0     0   200    0.00   0.0   0.0   0.00   0.269   0.247   0.255   0.140   0.197   0.192   0.303   0.303   0.304   0.304
 1992 284   120   559   260     74    130    655     0     0   200    0.00   0.0   0.0   2.45   0.331   0.313   0.322   0.175   0.194   0.189   0.303   0.303   0.304   0.304
 1992 285   121   555   257     74    130    655     0     0   200    0.00   0.0   0.0   0.00   0.281   0.275   0.279   0.216   0.191   0.186   0.302   0.303   0.304   0.304
 1992 286   122   551   253     74    130    655     0     0   200    0.00   0.0   0.0   0.00   0.257   0.256   0.258   0.221   0.188   0.182   0.302   0.302   0.304   0.304
 1992 287   123   545   247     74    130    655     0     0   200    0.00   0.0   0.0   0.00   0.232   0.245   0.248   0.211   0.184   0.178   0.302   0.302   0.304   0.304
 1992 288   124   539   241     74    130    655     0     0   200    0.00   0.0   0.0   0.00   0.207   0.235   0.238   0.201   0.179   0.174   0.302   0.302   0.304   0.304
 1992 289   125   534   236     74    130    655     0     0   200    0.00   0.0   0.0   0.00   0.191   0.223   0.227   0.190   0.175   0.170   0.302   0.302   0.304   0.304
 1992 290   126   529   231     74    130    655     0     0   200    0.00   0.0   0.0   0.00   0.177   0.214   0.216   0.179   0.171   0.168   0.302   0.302   0.304   0.304
 1992 291   127   524   226     74    130    655     0     0   200    0.00   0.0   0.0   0.00   0.166   0.208   0.210   0.164   0.167   0.165   0.302   0.302   0.304   0.304
 1992 292   128   520   222     74    130    655     0     0   200    0.00   0.0   0.0   0.00   0.155   0.201   0.202   0.153   0.162   0.160   0.302   0.302   0.304   0.304
 1992 293   129   515   217     74    130    655     0     0   200    0.00   0.0   0.0   0.00   0.145   0.194   0.195   0.146   0.156   0.155   0.302   0.302   0.304   0.304
 1992 294   130   511   213     74    130    655     0     0   200    0.00   0.0   0.0   0.00   0.137   0.187   0.188   0.139   0.150   0.149   0.302   0.302   0.304   0.304
 1992 295   131   508   210     74    130    655     0     0   200    0.00   0.0   0.0   0.00   0.129   0.181   0.182   0.134   0.145   0.145   0.302   0.302   0.304   0.304
 1992 296   132   505   207     74    130    655     0     0   200    0.00   0.0   0.0   0.00   0.122   0.177   0.179   0.131   0.142   0.141   0.302   0.302   0.304   0.304
 1992 297   133   503   205     74    130    655     0     0   200    0.00   0.0   0.0   0.00   0.115   0.174   0.176   0.129   0.139   0.139   0.302   0.302   0.303   0.304
 1992 298   134   502   204     74    130    655     0     0   200    0.00   0.0   0.0   0.00   0.109   0.172   0.174   0.127   0.137   0.137   0.302   0.302   0.303   0.304
 1992 299   135   501   202     74    130    655     0     0   200    0.00   0.0   0.0   0.00   0.104   0.170   0.172   0.125   0.136   0.136   0.302   0.302   0.303   0.304
 1992 300   136   499   201     74    130    655     0     0   200    0.00   0.0   0.0   0.00   0.099   0.168   0.170   0.124   0.134   0.134   0.302   0.302   0.303   0.304
 1992 301   137   498   200     74    130    655     0     0   200    0.00   0.0   0.0   0.00   0.094   0.166   0.169   0.122   0.133   0.133   0.302   0.302   0.303   0.304
 1992 302   138   498   199     74    130    655     0     0   200    0.00   0.0   0.0   0.00   0.090   0.165   0.167   0.121   0.132   0.132   0.302   0.302   0.303   0.304
 1992 303   139   497   199     74    130    655     0     0   200    0.00   0.0   0.0   0.00   0.087   0.165   0.166   0.121   0.131   0.131   0.302   0.302   0.303   0.304
 1992 304   140   496   198     74    130    655     0     0   200    0.00   0.0   0.0   0.00   0.083   0.164   0.166   0.121   0.130   0.130   0.301   0.302   0.303   0.304
 1992 305   141   496   198     74    130    655     0     0   200    0.00   0.0   0.0   0.00   0.080   0.163   0.166   0.121   0.129   0.129   0.301   0.302   0.303   0.304

*DSSAT Cropping System Model Ver. 4.7.5.008 -release  JAN 15, 2021 21:49:57

*RUN   3        : ERiMA DCC1                MZCER047 ETMZpolo    1
 MODEL          : MZCER047 - Maize
 EXPERIMENT     : ETMZpolo SN MELKSSAL
 DATA PATH      : C:\Users\kpodo\Documents\GitHub\ET_DSS_hist_Eunjin\TEST\
 TREATMENT  1   : ERiMA DCC1                MZCER047
  
!                                                                                                 Soil water content (mm3/mm3) by soil depth (cm):
!                                                                                                 0-5    5-15   15-20   20-35   35-50   50-65   65-81   81-97  97-118 118-200
@YEAR DOY   DAS  SWTD  SWXD   ROFC   DRNC   PREC  IR#C  IRRC  DTWT    MWTD  TDFD  TDFC   ROFD    SW1D    SW2D    SW3D    SW4D    SW5D    SW6D    SW7D    SW8D    SW9D    SW10
 1993 164     0   586   288      0      0      0     0     0     0    0.00   0.0   0.0   0.00   0.231   0.231   0.231   0.221   0.316   0.316   0.304   0.304   0.305   0.305
 1993 165     1   585   287      0      0      0     0     0   100    0.00   0.0   0.0   0.00   0.215   0.230   0.231   0.221   0.316   0.316   0.304   0.304   0.305   0.305
 1993 166     2   584   286      0      0      0     0     0   200    0.00   0.0   0.0   0.00   0.200   0.229   0.230   0.221   0.316   0.316   0.304   0.304   0.305   0.305
 1993 167     3   583   285      0      0      0     0     0   200    0.00   0.0   0.0   0.00   0.186   0.228   0.230   0.221   0.316   0.316   0.304   0.304   0.305   0.305
 1993 168     4   583   284      0      0      0     0     0   200    0.00   0.0   0.0   0.00   0.174   0.227   0.230   0.220   0.316   0.316   0.304   0.304   0.305   0.305
 1993 169     5   582   284      0      0      0     0     0   200    0.00   0.0   0.0   0.00   0.162   0.226   0.229   0.220   0.316   0.316   0.304   0.304   0.305   0.305
 1993 170     6   581   283      0      0      0     0     0   200    0.00   0.0   0.0   0.00   0.152   0.225   0.229   0.220   0.315   0.316   0.304   0.304   0.305   0.305
 1993 171     7   580   282      0      0      0     0     0   200    0.00   0.0   0.0   0.00   0.143   0.224   0.229   0.220   0.315   0.316   0.304   0.304   0.305   0.305
 1993 172     8   580   282      0      0      0     0     0   200    0.00   0.0   0.0   0.00   0.134   0.223   0.228   0.220   0.315   0.316   0.304   0.304   0.305   0.305
 1993 173     9   579   281      0      0      0     0     0   200    0.00   0.0   0.0   0.00   0.127   0.222   0.228   0.220   0.315   0.316   0.304   0.304   0.305   0.305
 1993 174    10   579   281      0      0      0     0     0   200    0.00   0.0   0.0   0.00   0.120   0.220   0.228   0.220   0.315   0.315   0.304   0.304   0.305   0.305
 1993 175    11   578   280      0      0      0     0     0   200    0.00   0.0   0.0   0.00   0.113   0.219   0.227   0.219   0.315   0.315   0.304   0.304   0.305   0.305
 1993 176    12   578   280      0      0      0     0     0   200    0.00   0.0   0.0   0.00   0.107   0.218   0.227   0.219   0.315   0.315   0.304   0.304   0.305   0.305
 1993 177    13   577   279      0      0      0     0     0   200    0.00   0.0   0.0   0.00   0.102   0.216   0.226   0.219   0.315   0.315   0.304   0.304   0.305   0.305
 1993 178    14   577   279      0      0      0     0     0   200    0.00   0.0   0.0   0.00   0.097   0.214   0.225   0.219   0.315   0.315   0.304   0.304   0.305   0.305
 1993 179    15   576   278      0      0      0     0     0   200    0.00   0.0   0.0   0.00   0.093   0.212   0.224   0.219   0.315   0.315   0.304   0.304   0.305   0.305
 1993 180    16   576   277      0      0      0     0     0   200    0.00   0.0   0.0   0.00   0.089   0.210   0.222   0.219   0.314   0.315   0.304   0.304   0.305   0.305
 1993 181    17   575   277      0      0      0     0     0   200    0.00   0.0   0.0   0.00   0.086   0.208   0.220   0.218   0.314   0.315   0.303   0.304   0.305   0.305
 1993 182    18   574   276      0      0      0     0     0   200    0.00   0.0   0.0   0.00   0.082   0.205   0.218   0.218   0.314   0.315   0.303   0.304   0.305   0.305
 1993 183    19   574   276      0      0      0     0     0   200    0.00   0.0   0.0   0.00   0.079   0.203   0.215   0.218   0.314   0.315   0.303   0.304   0.305   0.305
 1993 184    20   606   308     12      0     48     0     0   200    0.00   0.0   0.0  11.77   0.330   0.323   0.321   0.248   0.312   0.313   0.302   0.302   0.304   0.304
 1993 185    21   598   300     12      3     48     0     0   200    0.00   0.0   0.0   0.00   0.268   0.276   0.278   0.261   0.313   0.314   0.302   0.302   0.304   0.304
 1993 186    22   593   295     12      3     48     0     0   200    0.00   0.0   0.0   0.00   0.246   0.257   0.261   0.261   0.313   0.314   0.302   0.301   0.302   0.303
 1993 187    23   589   291     12      3     48     0     0   200    0.00   0.0   0.0   0.00   0.234   0.250   0.256   0.258   0.311   0.312   0.301   0.300   0.301   0.302
 1993 188    24   588   290     12      3     48     0     0   200    0.00   0.0   0.0   0.00   0.214   0.245   0.252   0.258   0.311   0.312   0.301   0.300   0.301   0.302
 1993 189    25   586   288     12      3     48     0     0   200    0.00   0.0   0.0   0.00   0.198   0.238   0.247   0.256   0.311   0.312   0.301   0.300   0.301   0.302
 1993 190    26   608   310     18      3     81     0     0   200    0.00   0.0   0.0   6.13   0.325   0.317   0.320   0.275   0.321   0.317   0.303   0.299   0.300   0.301
 1993 191    27   617   319     20      3     98     0     0   200    0.00   0.0   0.0   1.70   0.317   0.316   0.319   0.298   0.338   0.329   0.311   0.305   0.302   0.300
 1993 192    28   603   304     20     12     98     0     0   200    0.00   0.0   0.0   0.00   0.264   0.271   0.274   0.273   0.322   0.319   0.305   0.304   0.304   0.304
 1993 193    29   595   297     20     14     98     0     0   200    0.00   0.0   0.0   0.00   0.244   0.253   0.256   0.263   0.316   0.315   0.304   0.303   0.304   0.304
 1993 194    30   590   292     20     14     98     0     0   200    0.00   0.0   0.0   0.00   0.227   0.241   0.247   0.258   0.314   0.314   0.302   0.302   0.303   0.303
 1993 195    31   606   308     21     14    119     0     0   200    0.00   0.0   0.0   1.64   0.326   0.298   0.303   0.268   0.318   0.316   0.303   0.301   0.302   0.303
 1993 196    32   619   321     24     14    140     0     0   200    0.00   0.0   0.0   2.92   0.320   0.316   0.318   0.295   0.337   0.328   0.310   0.306   0.305   0.302
 1993 197    33   604   306     24     25    140     0     0   200    0.00   0.0   0.0   0.00   0.271   0.273   0.275   0.272   0.323   0.320   0.306   0.306   0.304   0.304
 1993 198    34   597   298     24     28    140     0     0   200    0.00   0.0   0.0   0.00   0.249   0.254   0.256   0.262   0.317   0.316   0.305   0.305   0.304   0.304
 1993 199    35   593   295     24     28    140     0     0   200    0.00   0.0   0.0   0.00   0.238   0.245   0.248   0.258   0.316   0.316   0.304   0.304   0.304   0.304
 1993 200    36   590   292     24     28    140     0     0   200    0.00   0.0   0.0   0.00   0.227   0.236   0.239   0.253   0.315   0.315   0.303   0.304   0.303   0.303
 1993 201    37   587   288     24     28    140     0     0   200    0.00   0.0   0.0   0.00   0.205   0.227   0.230   0.249   0.314   0.315   0.303   0.303   0.303   0.303
 1993 202    38   583   285     24     28    140     0     0   200    0.00   0.0   0.0   0.00   0.189   0.215   0.217   0.243   0.314   0.315   0.303   0.303   0.303   0.303
 1993 203    39   580   282     24     28    140     0     0   200    0.00   0.0   0.0   0.00   0.176   0.209   0.210   0.234   0.313   0.314   0.303   0.303   0.303   0.303
 1993 204    40   584   286     24     28    148     0     0   200    0.00   0.0   0.0   0.00   0.278   0.224   0.204   0.222   0.312   0.314   0.303   0.303   0.303   0.303
 1993 205    41   584   286     24     28    153     0     0   200    0.00   0.0   0.0   0.00   0.295   0.244   0.201   0.212   0.311   0.314   0.303   0.303   0.303   0.303
 1993 206    42   585   287     24     28    158     0     0   200    0.00   0.0   0.0   0.00   0.307   0.255   0.224   0.204   0.309   0.313   0.302   0.302   0.302   0.303
 1993 207    43   588   290     24     28    165     0     0   200    0.00   0.0   0.0   0.00   0.325   0.268   0.261   0.202   0.307   0.312   0.302   0.302   0.302   0.302
 1993 208    44   600   302     26     28    183     0     0   200    0.00   0.0   0.0   1.58   0.326   0.313   0.317   0.235   0.305   0.312   0.301   0.302   0.302   0.302
 1993 209    45   606   308     26     28    194     0     0   200    0.00   0.0   0.0   0.39   0.327   0.309   0.318   0.267   0.316   0.315   0.301   0.301   0.301   0.302
 1993 210    46   617   319     28     28    211     0     0   200    0.00   0.0   0.0   1.75   0.328   0.319   0.318   0.289   0.334   0.327   0.309   0.306   0.304   0.302
 1993 211    47   620   322     28     28    218     0     0   200    0.00   0.0   0.0   0.05   0.326   0.298   0.316   0.284   0.337   0.334   0.316   0.312   0.308   0.306
 1993 212    48   623   325     28     28    225     0     0   200    0.00   0.0   0.0   0.01   0.329   0.293   0.321   0.281   0.335   0.336   0.320   0.317   0.312   0.309
 1993 213    49   605   307     28     42    225     0     0   200    0.00   0.0   0.0   0.00   0.272   0.263   0.273   0.263   0.320   0.323   0.310   0.309   0.308   0.307
 1993 214    50   598   300     28     45    225     0     0   200    0.00   0.0   0.0   0.00   0.249   0.251   0.255   0.256   0.314   0.318   0.306   0.306   0.307   0.306
 1993 215    51   593   295     28     45    225     0     0   200    0.00   0.0   0.0   0.00   0.234   0.241   0.245   0.249   0.311   0.318   0.306   0.305   0.307   0.306
 1993 216    52   589   291     28     45    225     0     0   200    0.00   0.0   0.0   0.00   0.218   0.230   0.234   0.241   0.308   0.317   0.306   0.305   0.307   0.306
 1993 217    53   584   286     28     45    225     0     0   200    0.00   0.0   0.0   0.00   0.209   0.218   0.222   0.233   0.304   0.316   0.305   0.305   0.307   0.306
 1993 218    54   580   282     28     45    225     0     0   200    0.00   0.0   0.0   0.00   0.202   0.210   0.211   0.220   0.298   0.315   0.305   0.305   0.307   0.306
 1993 219    55   598   300     30     45    248     0     0   200    0.00   0.0   0.0   1.81   0.336   0.294   0.281   0.223   0.294   0.314   0.305   0.305   0.307   0.306
 1993 220    56   593   294     30     45    248     0     0   200    0.00   0.0   0.0   0.00   0.272   0.261   0.256   0.247   0.289   0.313   0.305   0.305   0.306   0.306
 1993 221    57   587   289     30     45    248     0     0   200    0.00   0.0   0.0   0.00   0.247   0.248   0.248   0.240   0.284   0.311   0.305   0.304   0.306   0.305
 1993 222    58   582   284     30     45    248     0     0   200    0.00   0.0   0.0   0.00   0.231   0.237   0.236   0.231   0.279   0.309   0.304   0.304   0.306   0.305
 1993 223    59   583   285     30     45    253     0     0   200    0.00   0.0   0.0   0.00   0.282   0.248   0.225   0.223   0.274   0.307   0.304   0.304   0.306   0.305
 1993 224    60   586   288     30     45    261     0     0   200    0.00   0.0   0.0   0.00   0.325   0.264   0.255   0.218   0.270   0.304   0.304   0.304   0.306   0.305
 1993 225    61   603   305     34     45    286     0     0   200    0.00   0.0   0.0   4.23   0.327   0.320   0.320   0.266   0.277   0.302   0.304   0.304   0.306   0.305
 1993 226    62   611   312     35     45    298     0     0   200    0.00   0.0   0.0   0.60   0.329   0.319   0.321   0.285   0.313   0.299   0.304   0.304   0.306   0.305
 1993 227    63   600   302     35     50    298     0     0   200    0.00   0.0   0.0   0.00   0.274   0.273   0.274   0.265   0.311   0.312   0.304   0.304   0.305   0.305
 1993 228    64   595   297     35     51    298     0     0   200    0.00   0.0   0.0   0.00   0.251   0.255   0.255   0.258   0.310   0.311   0.304   0.304   0.305   0.305
 1993 229    65   590   292     35     51    298     0     0   200    0.00   0.0   0.0   0.00   0.234   0.245   0.246   0.251   0.305   0.307   0.304   0.304   0.305   0.305
 1993 230    66   585   287     35     51    298     0     0   200    0.00   0.0   0.0   0.00   0.218   0.236   0.237   0.245   0.300   0.302   0.304   0.304   0.305   0.305
 1993 231    67   581   283     35     51    298     0     0   200    0.00   0.0   0.0   0.00   0.206   0.226   0.227   0.239   0.294   0.297   0.304   0.304   0.305   0.305
 1993 232    68   600   302     38     51    326     0     0   200    0.00   0.0   0.0   3.59   0.336   0.307   0.305   0.259   0.288   0.291   0.304   0.304   0.305   0.305
 1993 233    69   610   312     40     51    342     0     0   200    0.00   0.0   0.0   1.66   0.328   0.320   0.320   0.286   0.316   0.294   0.304   0.304   0.305   0.305
 1993 234    70   600   302     40     56    342     0     0   200    0.00   0.0   0.0   0.00   0.276   0.274   0.275   0.266   0.310   0.310   0.304   0.304   0.305   0.305
 1993 235    71   611   313     41     56    359     0     0   200    0.00   0.0   0.0   1.05   0.329   0.306   0.320   0.274   0.318   0.312   0.306   0.304   0.305   0.305
 1993 236    72   600   302     41     63    359     0     0   200    0.00   0.0   0.0   0.00   0.278   0.271   0.276   0.263   0.313   0.311   0.306   0.304   0.305   0.305
 1993 237    73   595   297     41     63    359     0     0   200    0.00   0.0   0.0   0.00   0.256   0.255   0.257   0.258   0.310   0.310   0.306   0.304   0.305   0.305
 1993 238    74   592   293     41     63    359     0     0   200    0.00   0.0   0.0   0.00   0.248   0.248   0.250   0.253   0.306   0.306   0.306   0.304   0.305   0.305
 1993 239    75   588   289     41     63    359     0     0   200    0.00   0.0   0.0   0.00   0.238   0.240   0.243   0.248   0.302   0.301   0.306   0.304   0.305   0.305
 1993 240    76   584   286     41     63    359     0     0   200    0.00   0.0   0.0   0.00   0.230   0.233   0.236   0.243   0.298   0.296   0.306   0.303   0.305   0.305
 1993 241    77   596   298     42     63    376     0     0   200    0.00   0.0   0.0   0.78   0.330   0.286   0.283   0.253   0.293   0.291   0.305   0.303   0.304   0.304
 1993 242    78   624   326     62     63    429     0     0   200    0.00   0.0   0.0  20.05   0.329   0.320   0.320   0.321   0.339   0.317   0.308   0.306   0.307   0.304
 1993 243    79   636   338     64     63    446     0     0   200    0.00   0.0   0.0   2.00   0.330   0.322   0.322   0.318   0.356   0.338   0.321   0.315   0.311   0.308
 1993 244    80   609   311     64     85    446     0     0   200    0.00   0.0   0.0   0.00   0.276   0.274   0.274   0.279   0.326   0.318   0.311   0.308   0.307   0.306
 1993 245    81   600   302     64     90    446     0     0   200    0.00   0.0   0.0   0.00   0.259   0.259   0.259   0.266   0.317   0.314   0.306   0.306   0.307   0.306
 1993 246    82   596   298     64     90    446     0     0   200    0.00   0.0   0.0   0.00   0.249   0.251   0.251   0.260   0.312   0.309   0.306   0.305   0.307   0.306
 1993 247    83   604   306     64     90    459     0     0   200    0.00   0.0   0.0   0.20   0.329   0.280   0.282   0.263   0.312   0.305   0.306   0.305   0.307   0.306
 1993 248    84   598   300     64     92    459     0     0   200    0.00   0.0   0.0   0.00   0.276   0.258   0.259   0.257   0.310   0.309   0.306   0.305   0.307   0.306
 1993 249    85   593   295     64     92    459     0     0   200    0.00   0.0   0.0   0.00   0.256   0.251   0.251   0.252   0.306   0.304   0.306   0.305   0.307   0.305
 1993 250    86   588   290     64     92    459     0     0   200    0.00   0.0   0.0   0.00   0.245   0.241   0.241   0.245   0.300   0.297   0.306   0.305   0.306   0.305
 1993 251    87   584   286     64     92    459     0     0   200    0.00   0.0   0.0   0.00   0.236   0.233   0.233   0.239   0.296   0.292   0.305   0.305   0.306   0.305
 1993 252    88   580   282     64     92    459     0     0   200    0.00   0.0   0.0   0.00   0.228   0.226   0.226   0.233   0.292   0.287   0.305   0.304   0.306   0.305
 1993 253    89   593   295     65     92    477     0     0   200    0.00   0.0   0.0   0.90   0.329   0.285   0.278   0.239   0.287   0.281   0.305   0.304   0.306   0.305
 1993 254    90   588   290     65     92    477     0     0   200    0.00   0.0   0.0   0.00   0.278   0.262   0.259   0.257   0.285   0.275   0.305   0.304   0.306   0.305
 1993 255    91   584   286     65     92    477     0     0   200    0.00   0.0   0.0   0.00   0.259   0.254   0.253   0.254   0.281   0.270   0.305   0.304   0.306   0.305
 1993 256    92   580   282     65     92    477     0     0   200    0.00   0.0   0.0   0.00   0.251   0.247   0.246   0.247   0.277   0.265   0.304   0.304   0.306   0.305
 1993 257    93   589   290     65     92    490     0     0   200    0.00   0.0   0.0   0.21   0.330   0.280   0.280   0.254   0.273   0.259   0.304   0.304   0.305   0.304
 1993 258    94   597   299     66     92    503     0     0   200    0.00   0.0   0.0   0.65   0.331   0.309   0.322   0.269   0.286   0.255   0.304   0.303   0.305   0.304
 1993 259    95   592   294     66     92    503     0     0   200    0.00   0.0   0.0   0.00   0.279   0.271   0.277   0.258   0.311   0.268   0.304   0.303   0.305   0.304
 1993 260    96   587   289     66     92    503     0     0   200    0.00   0.0   0.0   0.00   0.258   0.256   0.258   0.256   0.311   0.263   0.304   0.303   0.305   0.304
 1993 261    97   583   285     66     92    503     0     0   200    0.00   0.0   0.0   0.00   0.242   0.248   0.251   0.248   0.307   0.258   0.304   0.303   0.305   0.304
 1993 262    98   577   279     66     92    503     0     0   200    0.00   0.0   0.0   0.00   0.224   0.238   0.241   0.239   0.302   0.251   0.304   0.303   0.305   0.304
 1993 263    99   572   274     66     92    503     0     0   200    0.00   0.0   0.0   0.00   0.209   0.229   0.233   0.230   0.297   0.245   0.304   0.303   0.305   0.304
 1993 264   100   567   269     66     92    503     0     0   200    0.00   0.0   0.0   0.00   0.198   0.220   0.224   0.221   0.291   0.238   0.304   0.303   0.305   0.304
 1993 265   101   576   278     66     92    517     0     0   200    0.00   0.0   0.0   0.09   0.337   0.264   0.247   0.211   0.285   0.231   0.303   0.303   0.305   0.304
 1993 266   102   572   274     66     92    517     0     0   200    0.00   0.0   0.0   0.00   0.282   0.255   0.253   0.217   0.281   0.226   0.303   0.303   0.305   0.304
 1993 267   103   569   270     66     92    517     0     0   200    0.00   0.0   0.0   0.00   0.262   0.254   0.250   0.211   0.278   0.222   0.303   0.303   0.304   0.304
 1993 268   104   563   265     66     92    517     0     0   200    0.00   0.0   0.0   0.00   0.252   0.245   0.241   0.202   0.272   0.215   0.303   0.302   0.304   0.304
 1993 269   105   567   269     66     92    525     0     0   200    0.00   0.0   0.0   0.00   0.315   0.262   0.256   0.198   0.268   0.210   0.303   0.302   0.304   0.303
 1993 270   106   570   272     66     92    532     0     0   200    0.00   0.0   0.0   0.00   0.331   0.278   0.282   0.205   0.264   0.205   0.302   0.302   0.304   0.303
 1993 271   107   567   268     66     92    532     0     0   200    0.00   0.0   0.0   0.00   0.281   0.261   0.263   0.225   0.261   0.201   0.302   0.302   0.304   0.303
 1993 272   108   562   264     66     92    532     0     0   200    0.00   0.0   0.0   0.00   0.260   0.254   0.256   0.222   0.256   0.196   0.302   0.302   0.304   0.303
 1993 273   109   559   261     66     92    532     0     0   200    0.00   0.0   0.0   0.00   0.253   0.248   0.250   0.217   0.253   0.192   0.302   0.302   0.304   0.303
 1993 274   110   555   257     66     92    532     0     0   200    0.00   0.0   0.0   0.00   0.239   0.241   0.243   0.210   0.249   0.187   0.302   0.302   0.304   0.303
 1993 275   111   550   252     66     92    532     0     0   200    0.00   0.0   0.0   0.00   0.221   0.232   0.235   0.202   0.244   0.181   0.302   0.302   0.304   0.303
 1993 276   112   557   259     66     92    543     0     0   200    0.00   0.0   0.0   0.01   0.334   0.263   0.255   0.196   0.240   0.176   0.302   0.301   0.303   0.303
 1993 277   113   562   263     66     92    552     0     0   200    0.00   0.0   0.0   0.08   0.330   0.288   0.293   0.209   0.235   0.170   0.301   0.301   0.303   0.303
 1993 278   114   556   258     66     92    552     0     0   200    0.00   0.0   0.0   0.00   0.276   0.261   0.264   0.232   0.229   0.166   0.301   0.301   0.303   0.302
 1993 279   115   552   254     66     92    552     0     0   200    0.00   0.0   0.0   0.00   0.257   0.253   0.253   0.228   0.224   0.163   0.301   0.301   0.303   0.302
 1993 280   116   547   249     66     92    552     0     0   200    0.00   0.0   0.0   0.00   0.235   0.243   0.244   0.218   0.218   0.161   0.301   0.301   0.303   0.302
 1993 281   117   541   243     66     92    552     0     0   200    0.00   0.0   0.0   0.00   0.210   0.231   0.233   0.208   0.212   0.159   0.301   0.301   0.303   0.302
 1993 282   118   536   238     66     92    552     0     0   200    0.00   0.0   0.0   0.00   0.195   0.220   0.222   0.197   0.205   0.157   0.301   0.301   0.303   0.302
 1993 283   119   530   232     66     92    552     0     0   200    0.00   0.0   0.0   0.00   0.181   0.212   0.213   0.184   0.197   0.155   0.301   0.301   0.303   0.302
 1993 284   120   524   226     66     92    552     0     0   200    0.00   0.0   0.0   0.00   0.169   0.206   0.208   0.168   0.186   0.153   0.301   0.301   0.303   0.302
 1993 285   121   519   221     66     92    552     0     0   200    0.00   0.0   0.0   0.00   0.158   0.202   0.203   0.157   0.173   0.151   0.301   0.301   0.303   0.302
 1993 286   122   514   216     66     92    552     0     0   200    0.00   0.0   0.0   0.00   0.148   0.197   0.198   0.151   0.157   0.148   0.301   0.301   0.303   0.302
 1993 287   123   510   212     66     92    552     0     0   200    0.00   0.0   0.0   0.00   0.139   0.190   0.191   0.143   0.149   0.143   0.301   0.301   0.303   0.302
 1993 288   124   505   207     66     92    552     0     0   200    0.00   0.0   0.0   0.00   0.131   0.183   0.184   0.136   0.142   0.138   0.301   0.301   0.303   0.302
 1993 289   125   503   205     66     92    552     0     0   200    0.00   0.0   0.0   0.00   0.124   0.179   0.180   0.132   0.138   0.135   0.301   0.300   0.303   0.302
 1993 290   126   501   203     66     92    552     0     0   200    0.00   0.0   0.0   0.00   0.117   0.175   0.177   0.130   0.135   0.132   0.301   0.300   0.303   0.302
 1993 291   127   499   201     66     92    552     0     0   200    0.00   0.0   0.0   0.00   0.111   0.173   0.174   0.128   0.133   0.130   0.300   0.300   0.303   0.302
 1993 292   128   498   200     66     92    552     0     0   200    0.00   0.0   0.0   0.00   0.105   0.170   0.172   0.126   0.132   0.129   0.300   0.300   0.303   0.302
 1993 293   129   496   198     66     92    552     0     0   200    0.00   0.0   0.0   0.00   0.100   0.168   0.171   0.124   0.130   0.127   0.300   0.300   0.303   0.302
 1993 294   130   495   197     66     92    552     0     0   200    0.00   0.0   0.0   0.00   0.096   0.167   0.169   0.123   0.129   0.126   0.300   0.300   0.303   0.302
 1993 295   131   494   196     66     92    552     0     0   200    0.00   0.0   0.0   0.00   0.091   0.166   0.168   0.122   0.128   0.125   0.300   0.300   0.303   0.302
 1993 296   132   494   196     66     92    552     0     0   200    0.00   0.0   0.0   0.00   0.088   0.165   0.166   0.121   0.126   0.124   0.300   0.300   0.303   0.302
 1993 297   133   493   195     66     92    552     0     0   200    0.00   0.0   0.0   0.00   0.084   0.165   0.166   0.121   0.126   0.123   0.300   0.300   0.303   0.302
 1993 298   134   505   207     66     92    566     0     0   200    0.00   0.0   0.0   0.00   0.289   0.189   0.166   0.121   0.125   0.122   0.300   0.300   0.303   0.302
 1993 299   135   501   203     66     92    566     0     0   200    0.00   0.0   0.0   0.00   0.211   0.193   0.165   0.120   0.124   0.121   0.299   0.300   0.302   0.302
 1993 300   136   498   199     66     92    566     0     0   200    0.00   0.0   0.0   0.00   0.166   0.184   0.165   0.120   0.123   0.121   0.299   0.300   0.302   0.302
 1993 301   137   512   214     66     92    582     0     0   200    0.00   0.0   0.0   0.20   0.321   0.258   0.164   0.120   0.122   0.121   0.299   0.300   0.302   0.302

*DSSAT Cropping System Model Ver. 4.7.5.008 -release  JAN 15, 2021 21:49:57

*RUN   4        : ERiMA DCC1                MZCER047 ETMZpolo    1
 MODEL          : MZCER047 - Maize
 EXPERIMENT     : ETMZpolo SN MELKSSAL
 DATA PATH      : C:\Users\kpodo\Documents\GitHub\ET_DSS_hist_Eunjin\TEST\
 TREATMENT  1   : ERiMA DCC1                MZCER047
  
!                                                                                                 Soil water content (mm3/mm3) by soil depth (cm):
!                                                                                                 0-5    5-15   15-20   20-35   35-50   50-65   65-81   81-97  97-118 118-200
@YEAR DOY   DAS  SWTD  SWXD   ROFC   DRNC   PREC  IR#C  IRRC  DTWT    MWTD  TDFD  TDFC   ROFD    SW1D    SW2D    SW3D    SW4D    SW5D    SW6D    SW7D    SW8D    SW9D    SW10
 1994 164     0   586   288      0      0      0     0     0     0    0.00   0.0   0.0   0.00   0.231   0.231   0.231   0.221   0.316   0.316   0.304   0.304   0.305   0.305
 1994 165     1   585   287      0      0      0     0     0   100    0.00   0.0   0.0   0.00   0.215   0.230   0.231   0.221   0.316   0.316   0.304   0.304   0.305   0.305
 1994 166     2   584   286      0      0      0     0     0   200    0.00   0.0   0.0   0.00   0.200   0.229   0.230   0.221   0.316   0.316   0.304   0.304   0.305   0.305
 1994 167     3   583   285      0      0      0     0     0   200    0.00   0.0   0.0   0.00   0.186   0.228   0.230   0.221   0.316   0.316   0.304   0.304   0.305   0.305
 1994 168     4   583   284      0      0      0     0     0   200    0.00   0.0   0.0   0.00   0.174   0.227   0.230   0.220   0.316   0.316   0.304   0.304   0.305   0.305
 1994 169     5   593   295      0      0     12     0     0   200    0.00   0.0   0.0   0.00   0.309   0.261   0.237   0.220   0.316   0.316   0.304   0.304   0.305   0.305
 1994 170     6   587   289      0      0     12     0     0   200    0.00   0.0   0.0   0.00   0.258   0.254   0.255   0.219   0.312   0.313   0.301   0.302   0.303   0.303
 1994 171     7   586   288      0      0     12     0     0   200    0.00   0.0   0.0   0.00   0.239   0.253   0.255   0.219   0.312   0.313   0.301   0.302   0.303   0.303
 1994 172     8   585   287      0      0     12     0     0   200    0.00   0.0   0.0   0.00   0.221   0.251   0.254   0.219   0.312   0.313   0.301   0.302   0.303   0.303
 1994 173     9   584   286      0      0     12     0     0   200    0.00   0.0   0.0   0.00   0.206   0.250   0.254   0.219   0.312   0.313   0.301   0.302   0.303   0.303
 1994 174    10   583   285      0      0     12     0     0   200    0.00   0.0   0.0   0.00   0.191   0.248   0.254   0.218   0.311   0.313   0.301   0.302   0.303   0.303
 1994 175    11   588   290      0      0     22     0     0   200    0.00   0.0   0.0   0.00   0.301   0.262   0.264   0.220   0.308   0.310   0.299   0.300   0.301   0.302
 1994 176    12   583   285      0      0     22     0     0   200    0.00   0.0   0.0   0.00   0.259   0.256   0.257   0.226   0.305   0.308   0.297   0.298   0.300   0.301
 1994 177    13   582   284      0      0     22     0     0   200    0.00   0.0   0.0   0.00   0.238   0.254   0.257   0.226   0.305   0.308   0.297   0.298   0.300   0.301
 1994 178    14   581   283      0      0     22     0     0   200    0.00   0.0   0.0   0.00   0.220   0.252   0.256   0.226   0.305   0.308   0.297   0.298   0.300   0.301
 1994 179    15   588   290      0      0     34     0     0   200    0.00   0.0   0.0   0.13   0.317   0.274   0.281   0.236   0.302   0.305   0.295   0.296   0.299   0.299
 1994 180    16   583   285      0      0     34     0     0   200    0.00   0.0   0.0   0.00   0.265   0.259   0.264   0.255   0.300   0.303   0.294   0.295   0.297   0.298
 1994 181    17   579   281      0      0     34     0     0   200    0.00   0.0   0.0   0.00   0.243   0.252   0.257   0.253   0.297   0.301   0.292   0.294   0.296   0.297
 1994 182    18   586   287      0      0     47     0     0   200    0.00   0.0   0.0   0.13   0.316   0.277   0.284   0.262   0.297   0.299   0.290   0.292   0.295   0.296
 1994 183    19   586   288      0      0     53     0     0   200    0.00   0.0   0.0   0.00   0.315   0.277   0.295   0.268   0.305   0.296   0.288   0.290   0.293   0.295
 1994 184    20   580   282      0      0     53     0     0   200    0.00   0.0   0.0   0.00   0.257   0.256   0.266   0.262   0.313   0.311   0.287   0.289   0.292   0.294
 1994 185    21   588   290      0      0     65     0     0   200    0.00   0.0   0.0   0.17   0.320   0.282   0.293   0.268   0.317   0.313   0.285   0.288   0.291   0.293
 1994 186    22   583   285      0      0     65     0     0   200    0.00   0.0   0.0   0.00   0.265   0.259   0.266   0.262   0.314   0.314   0.303   0.293   0.290   0.292
 1994 187    23   580   282      0      0     65     0     0   200    0.00   0.0   0.0   0.00   0.247   0.252   0.257   0.261   0.313   0.313   0.301   0.292   0.289   0.291
 1994 188    24   577   279      0      0     65     0     0   200    0.00   0.0   0.0   0.00   0.222   0.245   0.251   0.260   0.313   0.313   0.301   0.292   0.289   0.291
 1994 189    25   575   277      0      0     65     0     0   200    0.00   0.0   0.0   0.00   0.202   0.237   0.245   0.258   0.312   0.313   0.301   0.292   0.289   0.291
 1994 190    26   592   294      3      0     90     0     0   200    0.00   0.0   0.0   2.80   0.327   0.301   0.308   0.269   0.318   0.317   0.300   0.291   0.288   0.290
 1994 191    27   608   310      8      0    116     0     0   200    0.00   0.0   0.0   4.68   0.319   0.318   0.320   0.304   0.342   0.331   0.311   0.302   0.287   0.289
 1994 192    28   616   318      9      0    130     0     0   200    0.00   0.0   0.0   0.98   0.319   0.317   0.319   0.303   0.351   0.343   0.321   0.313   0.298   0.289
 1994 193    29   635   336     15      0    158     0     0   200    0.00   0.0   0.0   6.05   0.324   0.319   0.321   0.327   0.369   0.358   0.334   0.326   0.312   0.299
 1994 194    30   614   316     15     18    158     0     0   200    0.00   0.0   0.0   0.00   0.275   0.276   0.278   0.286   0.336   0.332   0.316   0.312   0.307   0.305
[...]
 2018 185    21   581   282      1      0     88     0     0   200    0.00   0.0   0.0   0.00   0.229   0.249   0.256   0.260   0.311   0.312   0.301   0.301   0.303   0.302
 2018 186    22   579   281      1      0     88     0     0   200    0.00   0.0   0.0   0.00   0.209   0.245   0.254   0.260   0.311   0.312   0.301   0.301   0.302   0.302
 2018 187    23   577   279      1      0     88     0     0   200    0.00   0.0   0.0   0.00   0.194   0.240   0.250   0.259   0.311   0.312   0.301   0.301   0.302   0.302
 2018 188    24   591   293      2      0    108     0     0   200    0.00   0.0   0.0   1.25   0.324   0.289   0.295   0.267   0.315   0.312   0.299   0.300   0.301   0.301
 2018 189    25   587   289      2      0    108     0     0   200    0.00   0.0   0.0   0.00   0.266   0.263   0.268   0.264   0.314   0.314   0.302   0.303   0.304   0.304
 2018 190    26   582   284      2      0    108     0     0   200    0.00   0.0   0.0   0.00   0.246   0.255   0.257   0.261   0.314   0.312   0.301   0.301   0.303   0.303
 2018 191    27   588   290      2      0    119     0     0   200    0.00   0.0   0.0   0.01   0.322   0.271   0.276   0.264   0.316   0.311   0.300   0.300   0.302   0.302
 2018 192    28   584   286      2      0    119     0     0   200    0.00   0.0   0.0   0.00   0.267   0.256   0.259   0.261   0.314   0.314   0.303   0.303   0.304   0.302
 2018 193    29   579   281      2      0    119     0     0   200    0.00   0.0   0.0   0.00   0.246   0.249   0.252   0.257   0.312   0.313   0.301   0.302   0.303   0.301
 2018 194    30   577   279      2      0    119     0     0   200    0.00   0.0   0.0   0.00   0.222   0.243   0.248   0.255   0.312   0.313   0.301   0.302   0.303   0.301
 2018 195    31   575   277      2      0    119     0     0   200    0.00   0.0   0.0   0.00   0.203   0.236   0.242   0.253   0.312   0.313   0.301   0.302   0.303   0.301
 2018 196    32   573   274      2      0    119     0     0   200    0.00   0.0   0.0   0.00   0.188   0.228   0.236   0.251   0.312   0.313   0.301   0.302   0.303   0.301
 2018 197    33   589   291      4      0    141     0     0   200    0.00   0.0   0.0   1.72   0.330   0.289   0.288   0.261   0.314   0.311   0.300   0.301   0.302   0.301
 2018 198    34   585   287      4      0    141     0     0   200    0.00   0.0   0.0   0.00   0.273   0.263   0.264   0.260   0.315   0.315   0.303   0.303   0.304   0.304
 2018 199    35   581   283      4      0    141     0     0   200    0.00   0.0   0.0   0.00   0.249   0.253   0.253   0.259   0.313   0.314   0.302   0.302   0.304   0.304
 2018 200    36   578   280      4      0    141     0     0   200    0.00   0.0   0.0   0.00   0.222   0.243   0.245   0.256   0.313   0.314   0.302   0.302   0.304   0.304
 2018 201    37   575   277      4      0    141     0     0   200    0.00   0.0   0.0   0.00   0.202   0.236   0.238   0.253   0.313   0.314   0.302   0.302   0.304   0.304
 2018 202    38   588   290      5      0    158     0     0   200    0.00   0.0   0.0   0.54   0.333   0.278   0.276   0.261   0.312   0.313   0.301   0.302   0.303   0.303
 2018 203    39   584   286      5      0    158     0     0   200    0.00   0.0   0.0   0.00   0.273   0.256   0.257   0.259   0.315   0.315   0.303   0.303   0.304   0.305
 2018 204    40   581   283      5      0    158     0     0   200    0.00   0.0   0.0   0.00   0.253   0.251   0.249   0.255   0.314   0.314   0.303   0.303   0.304   0.304
 2018 205    41   577   279      5      0    158     0     0   200    0.00   0.0   0.0   0.00   0.223   0.239   0.238   0.250   0.313   0.314   0.303   0.303   0.304   0.304
 2018 206    42   574   275      5      0    158     0     0   200    0.00   0.0   0.0   0.00   0.201   0.228   0.228   0.245   0.313   0.314   0.303   0.303   0.304   0.304
 2018 207    43   571   272      5      0    158     0     0   200    0.00   0.0   0.0   0.00   0.186   0.218   0.219   0.241   0.313   0.314   0.303   0.303   0.304   0.304
 2018 208    44   567   269      5      0    158     0     0   200    0.00   0.0   0.0   0.00   0.173   0.209   0.210   0.232   0.312   0.314   0.303   0.303   0.304   0.304
 2018 209    45   564   266      5      0    158     0     0   200    0.00   0.0   0.0   0.00   0.162   0.203   0.204   0.221   0.311   0.314   0.303   0.303   0.304   0.304
 2018 210    46   560   262      5      0    158     0     0   200    0.00   0.0   0.0   0.00   0.152   0.199   0.200   0.207   0.310   0.314   0.303   0.303   0.304   0.304
 2018 211    47   557   259      5      0    158     0     0   200    0.00   0.0   0.0   0.00   0.142   0.195   0.197   0.193   0.308   0.314   0.302   0.303   0.304   0.304
 2018 212    48   571   273      5      0    177     0     0   200    0.00   0.0   0.0   0.47   0.322   0.265   0.220   0.175   0.306   0.314   0.302   0.303   0.304   0.304
 2018 213    49   567   269      5      0    177     0     0   200    0.00   0.0   0.0   0.00   0.268   0.249   0.253   0.170   0.304   0.313   0.302   0.302   0.304   0.304
 2018 214    50   582   284      7      0    197     0     0   200    0.00   0.0   0.0   1.71   0.326   0.302   0.311   0.198   0.303   0.313   0.302   0.302   0.303   0.304
 2018 215    51   585   287      7      0    203     0     0   200    0.00   0.0   0.0   0.00   0.327   0.290   0.319   0.227   0.302   0.313   0.302   0.302   0.303   0.303
 2018 216    52   588   290      7      0    210     0     0   200    0.00   0.0   0.0   0.00   0.327   0.285   0.317   0.255   0.300   0.312   0.301   0.302   0.303   0.303
 2018 217    53   584   286      7      0    210     0     0   200    0.00   0.0   0.0   0.00   0.271   0.256   0.270   0.257   0.314   0.316   0.304   0.304   0.303   0.303
 2018 218    54   580   281      7      0    210     0     0   200    0.00   0.0   0.0   0.00   0.250   0.247   0.252   0.252   0.313   0.315   0.303   0.304   0.303   0.303
 2018 219    55   575   277      7      0    210     0     0   200    0.00   0.0   0.0   0.00   0.226   0.233   0.238   0.245   0.312   0.315   0.303   0.303   0.303   0.303
 2018 220    56   571   272      7      0    210     0     0   200    0.00   0.0   0.0   0.00   0.205   0.219   0.225   0.238   0.310   0.315   0.303   0.303   0.303   0.303
 2018 221    57   567   269      7      0    210     0     0   200    0.00   0.0   0.0   0.00   0.196   0.211   0.212   0.229   0.309   0.315   0.303   0.303   0.303   0.303
 2018 222    58   563   265      7      0    210     0     0   200    0.00   0.0   0.0   0.00   0.186   0.204   0.205   0.216   0.305   0.314   0.303   0.303   0.303   0.303
 2018 223    59   559   261      7      0    210     0     0   200    0.00   0.0   0.0   0.00   0.178   0.199   0.200   0.202   0.302   0.314   0.303   0.303   0.303   0.303
 2018 224    60   555   257      7      0    210     0     0   200    0.00   0.0   0.0   0.00   0.171   0.196   0.197   0.186   0.297   0.313   0.303   0.303   0.303   0.303
 2018 225    61   550   252      7      0    210     0     0   200    0.00   0.0   0.0   0.00   0.164   0.193   0.194   0.169   0.291   0.311   0.303   0.303   0.303   0.303
 2018 226    62   546   248      7      0    210     0     0   200    0.00   0.0   0.0   0.00   0.157   0.190   0.191   0.157   0.282   0.307   0.303   0.303   0.303   0.303
 2018 227    63   541   243      7      0    210     0     0   200    0.00   0.0   0.0   0.00   0.151   0.187   0.188   0.152   0.268   0.301   0.303   0.303   0.303   0.303
 2018 228    64   543   245      7      0    216     0     0   200    0.00   0.0   0.0   0.00   0.262   0.190   0.186   0.149   0.253   0.294   0.303   0.303   0.303   0.303
 2018 229    65   543   245      7      0    220     0     0   200    0.00   0.0   0.0   0.00   0.272   0.207   0.185   0.148   0.246   0.290   0.303   0.303   0.303   0.303
 2018 230    66   542   244      7      0    222     0     0   200    0.00   0.0   0.0   0.00   0.268   0.218   0.184   0.147   0.239   0.285   0.303   0.303   0.303   0.303
 2018 231    67   543   245      7      0    226     0     0   200    0.00   0.0   0.0   0.00   0.282   0.234   0.184   0.147   0.232   0.282   0.303   0.303   0.303   0.303
 2018 232    68   543   245      7      0    230     0     0   200    0.00   0.0   0.0   0.00   0.293   0.248   0.183   0.146   0.226   0.278   0.303   0.303   0.303   0.303
 2018 233    69   562   264     11      0    256     0     0   200    0.00   0.0   0.0   4.26   0.325   0.316   0.323   0.177   0.220   0.274   0.303   0.303   0.303   0.302
 2018 234    70   566   268     11      0    265     0     0   200    0.00   0.0   0.0   0.15   0.327   0.303   0.318   0.223   0.215   0.271   0.302   0.303   0.302   0.302
 2018 235    71   571   273     11      0    274     0     0   200    0.00   0.0   0.0   0.12   0.331   0.302   0.322   0.262   0.215   0.269   0.302   0.303   0.302   0.302
 2018 236    72   576   278     11      0    283     0     0   200    0.00   0.0   0.0   0.13   0.331   0.302   0.321   0.277   0.237   0.266   0.302   0.302   0.302   0.302
 2018 237    73   573   275     11      0    283     0     0   200    0.00   0.0   0.0   0.00   0.279   0.268   0.276   0.264   0.284   0.262   0.302   0.302   0.302   0.302
 2018 238    74   581   283     12      0    296     0     0   200    0.00   0.0   0.0   0.40   0.329   0.293   0.308   0.270   0.296   0.258   0.302   0.302   0.302   0.302
 2018 239    75   590   292     13      0    309     0     0   200    0.00   0.0   0.0   0.73   0.332   0.314   0.322   0.284   0.318   0.265   0.302   0.302   0.302   0.302
 2018 240    76   599   301     13      0    322     0     0   200    0.00   0.0   0.0   0.85   0.330   0.321   0.321   0.294   0.332   0.294   0.302   0.302   0.302   0.302
 2018 241    77   616   318     19      0    349     0     0   200    0.00   0.0   0.0   5.43   0.330   0.321   0.321   0.322   0.355   0.330   0.313   0.309   0.307   0.302
 2018 242    78   608   310     19      4    349     0     0   200    0.00   0.0   0.0   0.00   0.280   0.277   0.277   0.283   0.327   0.318   0.307   0.306   0.307   0.305
 2018 243    79   599   301     19      9    349     0     0   200    0.00   0.0   0.0   0.00   0.259   0.258   0.259   0.266   0.315   0.314   0.305   0.306   0.307   0.305
 2018 244    80   595   297     19      9    349     0     0   200    0.00   0.0   0.0   0.00   0.249   0.250   0.250   0.261   0.310   0.310   0.305   0.305   0.307   0.305
 2018 245    81   590   292     19      9    349     0     0   200    0.00   0.0   0.0   0.00   0.238   0.240   0.240   0.255   0.304   0.305   0.305   0.305   0.307   0.305
 2018 246    82   585   287     19      9    349     0     0   200    0.00   0.0   0.0   0.00   0.227   0.230   0.230   0.249   0.297   0.300   0.305   0.305   0.307   0.305
 2018 247    83   580   282     19      9    349     0     0   200    0.00   0.0   0.0   0.00   0.217   0.220   0.221   0.243   0.291   0.295   0.304   0.305   0.306   0.304
 2018 248    84   576   278     19      9    349     0     0   200    0.00   0.0   0.0   0.00   0.211   0.214   0.215   0.236   0.285   0.289   0.304   0.305   0.306   0.304
 2018 249    85   572   274     19      9    349     0     0   200    0.00   0.0   0.0   0.00   0.207   0.210   0.210   0.229   0.278   0.283   0.304   0.305   0.306   0.304
 2018 250    86   568   270     19      9    349     0     0   200    0.00   0.0   0.0   0.00   0.204   0.206   0.207   0.221   0.270   0.277   0.304   0.304   0.306   0.304
 2018 251    87   564   265     19      9    349     0     0   200    0.00   0.0   0.0   0.00   0.200   0.203   0.204   0.213   0.262   0.269   0.304   0.304   0.306   0.304
 2018 252    88   559   261     19      9    349     0     0   200    0.00   0.0   0.0   0.00   0.197   0.201   0.202   0.203   0.253   0.261   0.303   0.304   0.306   0.304
 2018 253    89   554   256     19      9    349     0     0   200    0.00   0.0   0.0   0.00   0.195   0.199   0.199   0.194   0.244   0.253   0.303   0.304   0.305   0.304
 2018 254    90   550   252     19      9    349     0     0   200    0.00   0.0   0.0   0.00   0.187   0.197   0.198   0.185   0.236   0.246   0.303   0.304   0.305   0.304
 2018 255    91   546   248     19      9    349     0     0   200    0.00   0.0   0.0   0.00   0.179   0.195   0.196   0.177   0.228   0.239   0.303   0.304   0.305   0.304
 2018 256    92   542   244     19      9    349     0     0   200    0.00   0.0   0.0   0.00   0.172   0.194   0.195   0.168   0.220   0.232   0.303   0.304   0.305   0.304
 2018 257    93   537   239     19      9    349     0     0   200    0.00   0.0   0.0   0.00   0.164   0.192   0.194   0.161   0.209   0.221   0.303   0.304   0.305   0.304
 2018 258    94   556   258     21      9    375     0     0   200    0.00   0.0   0.0   2.56   0.332   0.293   0.273   0.165   0.198   0.210   0.303   0.304   0.305   0.304
 2018 259    95   570   272     24      9    396     0     0   200    0.00   0.0   0.0   2.92   0.327   0.319   0.319   0.236   0.191   0.204   0.303   0.304   0.305   0.303
 2018 260    96   565   267     24      9    396     0     0   200    0.00   0.0   0.0   0.00   0.277   0.275   0.275   0.257   0.207   0.199   0.303   0.303   0.305   0.303
 2018 261    97   561   263     24      9    396     0     0   200    0.00   0.0   0.0   0.00   0.258   0.258   0.259   0.258   0.208   0.195   0.303   0.303   0.305   0.303
 2018 262    98   556   258     24      9    396     0     0   200    0.00   0.0   0.0   0.00   0.242   0.250   0.250   0.250   0.203   0.190   0.303   0.303   0.305   0.303
 2018 263    99   552   254     24      9    396     0     0   200    0.00   0.0   0.0   0.00   0.227   0.242   0.243   0.243   0.198   0.185   0.303   0.303   0.305   0.303
 2018 264   100   547   249     24      9    396     0     0   200    0.00   0.0   0.0   0.00   0.211   0.233   0.234   0.235   0.193   0.180   0.303   0.303   0.305   0.303
 2018 265   101   543   245     24      9    396     0     0   200    0.00   0.0   0.0   0.00   0.202   0.225   0.227   0.228   0.188   0.175   0.303   0.303   0.305   0.303
 2018 266   102   538   240     24      9    396     0     0   200    0.00   0.0   0.0   0.00   0.193   0.217   0.218   0.218   0.182   0.170   0.303   0.303   0.305   0.303
 2018 267   103   534   236     24      9    396     0     0   200    0.00   0.0   0.0   0.00   0.185   0.212   0.213   0.208   0.175   0.166   0.303   0.303   0.305   0.303
 2018 268   104   529   231     24      9    396     0     0   200    0.00   0.0   0.0   0.00   0.177   0.207   0.208   0.194   0.167   0.162   0.302   0.303   0.305   0.303
 2018 269   105   524   226     24      9    396     0     0   200    0.00   0.0   0.0   0.00   0.169   0.204   0.205   0.178   0.162   0.159   0.302   0.303   0.305   0.303
 2018 270   106   519   221     24      9    396     0     0   200    0.00   0.0   0.0   0.00   0.161   0.200   0.201   0.158   0.158   0.156   0.302   0.303   0.305   0.303
 2018 271   107   514   216     24      9    396     0     0   200    0.00   0.0   0.0   0.00   0.153   0.193   0.195   0.147   0.151   0.150   0.302   0.303   0.305   0.303
 2018 272   108   510   211     24      9    396     0     0   200    0.00   0.0   0.0   0.00   0.146   0.186   0.187   0.139   0.144   0.144   0.302   0.303   0.305   0.303
 2018 273   109   506   208     24      9    396     0     0   200    0.00   0.0   0.0   0.00   0.138   0.181   0.182   0.134   0.139   0.139   0.302   0.303   0.305   0.303
 2018 274   110   509   211     24      9    402     0     0   200    0.00   0.0   0.0   0.00   0.233   0.177   0.179   0.131   0.136   0.136   0.302   0.303   0.305   0.303
 2018 275   111   505   207     24      9    402     0     0   200    0.00   0.0   0.0   0.00   0.166   0.176   0.177   0.130   0.135   0.135   0.302   0.303   0.305   0.303
 2018 276   112   503   205     24      9    402     0     0   200    0.00   0.0   0.0   0.00   0.157   0.173   0.175   0.128   0.133   0.133   0.302   0.303   0.305   0.303
 2018 277   113   502   203     24      9    402     0     0   200    0.00   0.0   0.0   0.00   0.148   0.171   0.172   0.126   0.131   0.131   0.302   0.303   0.305   0.303
 2018 278   114   500   202     24      9    402     0     0   200    0.00   0.0   0.0   0.00   0.139   0.169   0.171   0.124   0.129   0.130   0.302   0.303   0.305   0.303
 2018 279   115   499   201     24      9    402     0     0   200    0.00   0.0   0.0   0.00   0.131   0.167   0.169   0.123   0.128   0.128   0.302   0.303   0.305   0.303
 2018 280   116   498   200     24      9    402     0     0   200    0.00   0.0   0.0   0.00   0.123   0.166   0.168   0.122   0.127   0.127   0.302   0.303   0.305   0.303
 2018 281   117   497   199     24      9    402     0     0   200    0.00   0.0   0.0   0.00   0.117   0.165   0.166   0.121   0.126   0.126   0.302   0.303   0.305   0.303
 2018 282   118   496   198     24      9    402     0     0   200    0.00   0.0   0.0   0.00   0.111   0.165   0.166   0.121   0.125   0.125   0.302   0.303   0.305   0.303
 2018 283   119   495   197     24      9    402     0     0   200    0.00   0.0   0.0   0.00   0.105   0.164   0.166   0.121   0.124   0.124   0.302   0.303   0.305   0.303
 2018 284   120   495   197     24      9    402     0     0   200    0.00   0.0   0.0   0.00   0.100   0.163   0.166   0.121   0.123   0.124   0.302   0.303   0.305   0.303
 2018 285   121   494   196     24      9    402     0     0   200    0.00   0.0   0.0   0.00   0.096   0.163   0.165   0.121   0.122   0.123   0.302   0.303   0.305   0.303
 2018 286   122   494   196     24      9    402     0     0   200    0.00   0.0   0.0   0.00   0.091   0.162   0.165   0.121   0.122   0.122   0.302   0.303   0.305   0.303
 2018 287   123   493   195     24      9    402     0     0   200    0.00   0.0   0.0   0.00   0.088   0.161   0.165   0.121   0.121   0.121   0.302   0.303   0.305   0.303
 2018 288   124   498   200     24      9    407     0     0   200    0.00   0.0   0.0   0.00   0.180   0.161   0.165   0.121   0.121   0.121   0.302   0.303   0.305   0.303
 2018 289   125   497   199     24      9    407     0     0   200    0.00   0.0   0.0   0.00   0.166   0.160   0.164   0.120   0.121   0.121   0.302   0.303   0.305   0.303
 2018 290   126   496   198     24      9    407     0     0   200    0.00   0.0   0.0   0.00   0.155   0.159   0.164   0.120   0.121   0.121   0.302   0.303   0.305   0.303
 2018 291   127   496   198     24      9    407     0     0   200    0.00   0.0   0.0   0.00   0.146   0.159   0.164   0.120   0.121   0.121   0.302   0.303   0.305   0.303
 2018 292   128   495   197     24      9    407     0     0   200    0.00   0.0   0.0   0.00   0.137   0.158   0.164   0.120   0.121   0.121   0.302   0.303   0.305   0.303
 2018 293   129   495   197     24      9    407     0     0   200    0.00   0.0   0.0   0.00   0.129   0.158   0.164   0.120   0.121   0.121   0.302   0.303   0.305   0.303
 2018 294   130   494   196     24      9    407     0     0   200    0.00   0.0   0.0   0.00   0.122   0.157   0.163   0.120   0.121   0.121   0.302   0.303   0.305   0.303
 2018 295   131   494   196     24      9    407     0     0   200    0.00   0.0   0.0   0.00   0.115   0.156   0.163   0.120   0.121   0.121   0.302   0.303   0.305   0.303
 2018 296   132   493   195     24      9    407     0     0   200    0.00   0.0   0.0   0.00   0.109   0.156   0.163   0.120   0.121   0.121   0.302   0.303   0.305   0.303
 2018 297   133   493   195     24      9    407     0     0   200    0.00   0.0   0.0   0.00   0.104   0.155   0.163   0.120   0.121   0.121   0.302   0.303   0.305   0.303
 2018 298   134   493   195     24      9    407     0     0   200    0.00   0.0   0.0   0.00   0.099   0.154   0.163   0.120   0.121   0.121   0.302   0.303   0.305   0.303
