*Soil Inorganic Nitrogen daily output file

*DSSAT Cropping System Model Ver. 4.7.5.008 -release  JAN 15, 2021 21:49:57

*RUN   1        : ERiMA DCC1                MZCER047 ETMZpolo    1
 MODEL          : MZCER047 - Maize
 EXPERIMENT     : ETMZpolo SN MELKSSAL
 DATA PATH      : C:\Users\kpodo\Documents\GitHub\ET_DSS_hist_Eunjin\TEST\
 TREATMENT  1   : ERiMA DCC1                MZCER047
  
!                                                                                                                              NO3 (ppm) at soil dep. (cm):                                                    NH4 (ppm) at soil dep. (cm):                                                    Total Inorganic N @dep(ppm):
!                                                                                                                               0-5    5-15   15-20   20-35   35-50   50-65   65-81   81-97  97-118 118-200     0-5    5-15   15-20   20-35   35-50   50-65   65-81   81-97  97-118 118-200     0-5    5-15   15-20   20-35   35-50   50-65   65-81   81-97  97-118 118-200
@YEAR DOY   DAS  NAPC  NI#M    NIAD    NITD    NHTD    NMNC    NITC    NDNC    NIMC    AMLC   NNMNC    NUCM    NLCC    TDFC    NI1D    NI2D    NI3D    NI4D    NI5D    NI6D    NI7D    NI8D    NI9D    NI10    NH1D    NH2D    NH3D    NH4D    NH5D    NH6D    NH7D    NH8D    NH9D    NH10    NT1D    NT2D    NT3D    NT4D    NT5D    NT6D    NT7D    NT8D    NT9D    NT10    
 1991 164     0     0     0    42.0    39.6     2.4    0.00    0.00    0.00    0.00    0.00    0.00    0.00    0.00    0.00   15.00    15.0    15.0    2.00    0.00    0.00    0.00    0.00    0.00    0.00    0.10    0.10    0.10    0.10    0.10    0.10    0.10    0.10    0.10    0.10   15.10   15.10   15.10    2.10    0.10    0.10    0.10    0.10    0.10    0.10
 1991 165     1     0     0    43.0    40.8     2.3    1.01    1.17    0.00    0.00    0.00    1.01    0.00    0.00    0.00   15.06    15.1    15.1    2.05    0.05    0.05    0.05    0.05    0.05    0.05    0.12    0.12    0.12    0.11    0.10    0.10    0.09    0.09    0.08    0.08   15.18   15.18   15.18    2.16    0.16    0.15    0.14    0.14    0.13    0.13
 1991 166     2    30     1    60.0    41.9    18.1    2.05    2.32    0.00    0.00    0.00    2.05    0.00    0.00    0.00   15.37    15.1    15.0    2.11    0.11    0.11    0.10    0.10    0.09    0.09   26.73    0.13    0.13    0.11    0.10    0.10    0.09    0.09    0.07    0.08   42.10   15.19   15.17    2.22    0.21    0.21    0.19    0.18    0.16    0.16
 1991 167     3    30     1    67.9    52.9    14.9    3.11   13.40    0.00    0.00    0.00    3.11    0.00    0.00    0.00   32.15    15.1    15.0    2.17    0.17    0.16    0.14    0.14    0.13    0.12   21.59    0.14    0.14    0.11    0.10    0.10    0.09    0.09    0.07    0.07   53.74   15.21   15.16    2.28    0.27    0.27    0.23    0.23    0.20    0.19
 1991 168     4    30     1    72.0    62.4     9.6    4.20   22.92    0.00    0.00    0.00    4.20    0.00    0.00    0.00   46.37    15.1    15.0    2.24    0.23    0.22    0.19    0.19    0.16    0.16   12.80    0.14    0.14    0.11    0.10    0.10    0.08    0.09    0.07    0.07   59.16   15.23   15.16    2.35    0.33    0.33    0.28    0.27    0.23    0.23
 1991 169     5    30     1    74.7    68.8     5.9    5.32   29.33    0.00    0.00    0.00    5.32    0.00    0.00    0.00   55.38    15.1    15.0    2.30    0.29    0.28    0.24    0.24    0.20    0.19    6.65    0.13    0.14    0.11    0.10    0.10    0.08    0.08    0.06    0.07   62.04   15.25   15.16    2.41    0.39    0.39    0.32    0.32    0.26    0.26
 1991 170     6    30     1    76.6    72.8     3.8    6.47   33.42    0.00    0.00    0.00    6.47    0.00    0.00    0.00   60.51    15.1    15.0    2.37    0.36    0.35    0.29    0.29    0.23    0.23    3.25    0.13    0.13    0.11    0.10    0.10    0.08    0.08    0.06    0.06   63.75   15.27   15.16    2.48    0.46    0.45    0.37    0.37    0.30    0.29
 1991 171     7    30     1    78.3    75.3     2.9    7.62   35.94    0.00    0.00    0.00    7.62    0.00    0.00    0.00   63.09    15.2    15.0    2.44    0.42    0.41    0.34    0.33    0.27    0.26    1.81    0.13    0.13    0.11    0.10    0.10    0.08    0.08    0.06    0.06   64.90   15.30   15.17    2.55    0.52    0.51    0.42    0.42    0.33    0.33
 1991 172     8    30     1    79.7    77.1     2.6    8.73   37.66    0.00    0.00    0.00    8.73    0.00    0.00    0.00   64.47    15.2    15.0    2.50    0.48    0.47    0.39    0.38    0.30    0.30    1.26    0.13    0.13    0.11    0.10    0.10    0.08    0.08    0.06    0.06   65.73   15.32   15.17    2.61    0.58    0.57    0.47    0.46    0.37    0.36
 1991 173     9    30     1    80.9    78.5     2.4    9.82   39.11    0.00    0.00    0.00    9.82    0.00    0.00    0.00   65.42    15.2    15.0    2.57    0.54    0.53    0.43    0.42    0.34    0.33    0.95    0.14    0.14    0.11    0.10    0.10    0.08    0.08    0.06    0.06   66.38   15.33   15.16    2.67    0.64    0.63    0.51    0.51    0.40    0.39
 1991 174    10    30     1    82.1    79.8     2.4   10.88   40.40    0.00    0.00    0.00   10.88    0.00    0.00    0.00   66.15    15.2    15.0    2.62    0.60    0.58    0.48    0.47    0.37    0.36    0.77    0.14    0.14    0.11    0.10    0.10    0.08    0.08    0.06    0.06   66.92   15.35   15.16    2.74    0.70    0.69    0.56    0.55    0.43    0.42
 1991 175    11    30     1    83.3    81.0     2.3   11.92   41.58    0.00    0.00    0.00   11.92    0.00    0.00    0.00   66.74    15.2    15.0    2.68    0.65    0.64    0.52    0.51    0.40    0.39    0.65    0.14    0.14    0.11    0.10    0.10    0.08    0.08    0.06    0.06   67.39   15.36   15.15    2.80    0.76    0.74    0.60    0.59    0.46    0.46
 1991 176    12    30     1    84.4    82.1     2.3   12.96   42.73    0.00    0.00    0.00   12.96    0.00    0.00    0.00   67.26    15.2    15.0    2.74    0.71    0.69    0.56    0.55    0.43    0.42    0.56    0.14    0.14    0.11    0.10    0.10    0.08    0.09    0.06    0.07   67.82   15.37   15.15    2.85    0.81    0.80    0.65    0.64    0.50    0.49
 1991 177    13    30     1    85.5    83.3     2.2   14.04   43.92    0.00    0.00    0.00   14.04    0.00    0.00    0.00   67.75    15.2    15.0    2.80    0.77    0.75    0.61    0.60    0.46    0.45    0.49    0.14    0.14    0.11    0.10    0.10    0.08    0.08    0.06    0.06   68.23   15.39   15.15    2.92    0.87    0.86    0.69    0.68    0.53    0.52
 1991 178    14    30     1    86.6    84.4     2.2   15.09   45.02    0.00    0.00    0.00   15.09    0.00    0.00    0.00   68.18    15.3    15.0    2.86    0.83    0.81    0.65    0.64    0.50    0.49    0.45    0.14    0.14    0.11    0.10    0.10    0.08    0.09    0.06    0.07   68.63   15.40   15.14    2.98    0.93    0.91    0.74    0.73    0.56    0.55
 1991 179    15    30     1    87.4    85.3     2.2   16.14   46.12    0.00    0.00    0.00   16.14    0.19    0.00    0.00   68.59    15.2    14.9    2.92    0.88    0.86    0.70    0.68    0.53    0.52    0.43    0.14    0.14    0.11    0.10    0.10    0.08    0.09    0.06    0.07   69.02   15.29   15.05    3.03    0.99    0.97    0.78    0.77    0.59    0.58
 1991 180    16    30     1    88.3    86.1     2.2   17.15   47.26    0.00    0.00    0.00   17.15    0.51    0.00    0.00   68.73    15.1    14.9    2.98    0.94    0.92    0.74    0.73    0.56    0.55    0.50    0.12    0.13    0.11    0.10    0.10    0.08    0.09    0.06    0.07   69.23   15.22   14.98    3.09    1.04    1.02    0.82    0.81    0.62    0.61
 1991 181    17    30     1    89.1    87.0     2.1   18.12   48.36    0.00    0.00    0.00   18.12    0.68    0.00    0.00   53.27    23.0    14.8    3.04    0.99    0.97    0.78    0.77    0.59    0.58    0.41    0.11    0.12    0.11    0.11    0.11    0.09    0.09    0.07    0.07   53.68   23.07   14.93    3.15    1.10    1.08    0.87    0.85    0.66    0.64
 1991 182    18    30     1    89.6    87.4     2.1   19.08   49.34    0.00    0.00    0.00   19.08    1.22    0.00    0.00   56.68    22.9    11.9    2.85    1.03    1.00    0.81    0.80    0.62    0.60    0.33    0.14    0.12    0.12    0.11    0.11    0.09    0.09    0.07    0.07   57.01   23.01   12.03    2.97    1.14    1.11    0.90    0.89    0.68    0.67
 1991 183    19    30     1    90.2    88.1     2.1   20.04   50.37    0.00    0.00    0.00   20.04    1.52    0.00    0.00   62.82    21.1     9.9    2.71    1.07    1.04    0.85    0.84    0.64    0.63    0.25    0.15    0.11    0.11    0.11    0.11    0.09    0.09    0.07    0.07   63.07   21.25   10.04    2.82    1.18    1.15    0.94    0.92    0.71    0.70
 1991 184    20    30     1    90.6    88.5     2.1   21.00   51.36    0.00    0.00    0.00   21.00    2.11    0.00    0.00   47.12    27.8    11.6    2.76    1.13    1.09    0.89    0.88    0.67    0.66    0.20    0.15    0.11    0.11    0.11    0.11    0.09    0.09    0.07    0.07   47.32   27.95   11.72    2.87    1.23    1.20    0.98    0.96    0.74    0.73
 1991 185    21    30     1    90.8    88.7     2.1   21.94   52.31    0.00    0.00    0.00   21.94    2.90    0.00    0.00   31.50    27.1    20.8    5.17    1.17    1.13    0.93    0.91    0.70    0.69    0.20    0.15    0.12    0.11    0.11    0.11    0.09    0.09    0.07    0.07   31.70   27.21   20.91    5.27    1.27    1.23    1.01    1.00    0.77    0.76
 1991 186    22    30     1    90.8    88.7     2.1   22.91   53.22    0.00    0.00    0.00   22.91    3.77    0.00    0.00   33.24    23.7    18.1    7.23    1.44    1.16    0.96    0.95    0.73    0.72    0.20    0.17    0.15    0.11    0.11    0.11    0.09    0.09    0.07    0.07   33.44   23.83   18.25    7.34    1.55    1.27    1.05    1.04    0.79    0.78
 1991 187    23    30     1    91.1    89.0     2.1   23.88   54.21    0.00    0.00    0.00   23.88    4.52    0.00    0.00   36.87    22.1    16.3    7.30    1.64    1.20    1.00    0.98    0.75    0.74    0.17    0.16    0.15    0.12    0.11    0.11    0.09    0.09    0.07    0.07   37.04   22.29   16.46    7.41    1.75    1.31    1.09    1.07    0.82    0.81
 1991 188    24    30     1    90.8    88.7     2.1   24.85   55.20    0.00    0.00    0.00   24.85    5.72    0.00    0.00   40.83    20.8    14.7    6.98    1.67    1.24    1.03    1.02    0.78    0.77    0.16    0.15    0.15    0.12    0.11    0.11    0.09    0.09    0.07    0.07   40.99   20.93   14.84    7.09    1.78    1.35    1.12    1.11    0.85    0.84
 1991 189    25    30     1    90.9    88.8     2.1   25.83   56.18    0.00    0.00    0.00   25.83    6.65    0.00    0.00   40.63    20.4    14.5    7.00    1.72    1.29    1.07    1.06    0.81    0.80    0.15    0.15    0.15    0.12    0.11    0.11    0.09    0.09    0.07    0.07   40.78   20.57   14.64    7.11    1.83    1.40    1.16    1.15    0.88    0.87
 1991 190    26    30     1    90.6    88.5     2.1   26.79   57.15    0.00    0.00    0.00   26.79    7.91    0.00    0.00   16.74    24.0    22.0    9.03    2.29    1.38    1.12    1.10    0.84    0.83    0.14    0.15    0.15    0.12    0.11    0.11    0.09    0.09    0.07    0.07   16.89   24.16   22.10    9.15    2.40    1.49    1.20    1.19    0.91    0.90
 1991 191    27    30     1    87.5    85.4     2.1   27.77   58.07    0.00    0.00    0.00   27.77   11.93    0.00    0.00   17.63    19.7    17.9    9.39    3.50    1.71    1.26    1.18    0.89    0.86    0.17    0.16    0.17    0.12    0.12    0.11    0.09    0.09    0.07    0.07   17.80   19.90   18.03    9.51    3.62    1.82    1.35    1.27    0.95    0.92
 1991 192    28    30     1    86.6    84.5     2.1   28.74   59.07    0.00    0.00    0.00   28.74   13.82    0.00    0.00   12.63    17.5    19.2   10.58    4.18    1.86    1.32    1.23    0.91    0.89    0.16    0.15    0.16    0.12    0.11    0.11    0.09    0.09    0.07    0.07   12.78   17.63   19.38   10.70    4.30    1.96    1.40    1.32    0.98    0.95
 1991 193    29    30     1    86.1    84.0     2.2   29.71   59.96    0.00    0.00    0.00   29.71   15.25    0.00    0.00   13.05    15.3    16.1   10.54    5.33    2.35    1.50    1.30    0.96    0.94    0.18    0.17    0.18    0.12    0.12    0.12    0.09    0.09    0.07    0.07   13.23   15.42   16.32   10.66    5.45    2.47    1.59    1.39    1.03    1.01
 1991 194    30    30     1    84.8    82.6     2.2   30.65   60.92    0.00    0.00    0.00   30.65   17.53    0.00    0.00    9.16    13.4    16.4   11.19    5.96    2.53    1.57    1.34    0.99    0.97    0.16    0.16    0.17    0.12    0.12    0.12    0.09    0.09    0.07    0.07    9.33   13.58   16.61   11.31    6.08    2.65    1.66    1.43    1.06    1.04
 1991 195    31    30     1    83.1    80.9     2.2   31.60   61.82    0.11    0.00    0.00   31.60   19.88    0.20    0.00    9.59    11.5    13.4   10.56    6.77    3.07    1.82    1.43    1.03    1.00    0.17    0.15    0.16    0.12    0.13    0.13    0.09    0.09    0.07    0.07    9.76   11.64   13.53   10.69    6.90    3.20    1.91    1.52    1.10    1.07
 1991 196    32    30     1    81.8    79.6     2.2   32.53   62.75    0.12    0.00    0.00   32.53   22.06    0.20    0.00   10.57    10.7    12.1   10.12    6.80    3.14    1.87    1.48    1.06    1.03    0.16    0.15    0.15    0.12    0.13    0.13    0.09    0.09    0.07    0.07   10.73   10.87   12.23   10.24    6.92    3.26    1.96    1.57    1.13    1.10
 1991 197    33    30     1    80.2    78.1     2.1   33.46   63.70    0.12    0.00    0.00   33.46   24.53    0.20    0.00   11.42    10.0    11.2    9.58    6.73    3.16    1.90    1.51    1.09    1.06    0.16    0.15    0.15    0.12    0.12    0.12    0.09    0.09    0.07    0.07   11.58   10.14   11.32    9.70    6.85    3.28    1.99    1.60    1.15    1.13
 1991 198    34    30     1    78.6    76.4     2.1   34.37   64.63    0.12    0.00    0.00   34.37   27.10    0.20    0.00   10.85     9.3    10.4    9.22    6.77    3.21    1.93    1.55    1.11    1.09    0.15    0.15    0.15    0.12    0.12    0.12    0.09    0.09    0.07    0.07   11.00    9.44   10.55    9.34    6.89    3.32    2.02    1.64    1.18    1.16
 1991 199    35    30     1    76.2    74.1     2.1   35.25   65.52    0.12    0.00    0.00   35.25   30.38    0.20    0.00    4.69     9.0    11.3    9.43    6.92    3.26    1.97    1.58    1.14    1.12    0.14    0.15    0.15    0.12    0.11    0.11    0.09    0.09    0.07    0.07    4.83    9.12   11.41    9.55    7.04    3.37    2.06    1.67    1.21    1.18
 1991 200    36    30     1    74.4    72.2     2.2   36.13   66.35    0.12    0.00    0.00   36.13   32.94    0.29    0.00    4.52     7.5     9.3    8.95    7.27    3.62    2.14    1.66    1.18    1.15    0.17    0.16    0.16    0.12    0.12    0.11    0.09    0.09    0.07    0.07    4.69    7.70    9.48    9.08    7.40    3.73    2.23    1.75    1.25    1.21
 1991 201    37    30     1    71.3    69.2     2.2   37.02   67.25    0.12    0.00    0.00   37.02   36.89    0.29    0.00    4.64     6.6     8.1    8.14    7.19    3.63    2.17    1.69    1.20    1.17    0.16    0.16    0.16    0.12    0.12    0.11    0.09    0.09    0.07    0.07    4.81    6.71    8.21    8.26    7.31    3.75    2.26    1.78    1.27    1.24
 1991 202    38    30     1    69.0    66.9     2.1   37.91   68.16    0.12    0.00    0.00   37.91   40.08    0.29    0.00    4.71     5.8     7.1    7.49    7.12    3.65    2.20    1.73    1.23    1.20    0.16    0.16    0.16    0.12    0.11    0.11    0.09    0.09    0.07    0.07    4.87    5.93    7.26    7.62    7.23    3.76    2.29    1.82    1.30    1.27
 1991 203    39    30     1    66.7    64.6     2.1   38.82   69.08    0.12    0.00    0.00   38.82   43.28    0.29    0.00    4.19     5.0     6.2    6.92    7.11    3.70    2.24    1.76    1.26    1.23    0.16    0.16    0.15    0.12    0.11    0.11    0.09    0.09    0.07    0.07    4.35    5.15    6.31    7.05    7.22    3.81    2.33    1.85    1.33    1.29
 1991 204    40    30     1    63.9    61.8     2.1   39.73   70.01    0.12    0.00    0.00   39.73   47.05    0.29    0.00    3.77     4.1     5.0    6.19    7.08    3.75    2.27    1.80    1.29    1.25    0.14    0.15    0.15    0.12    0.11    0.11    0.09    0.09    0.07    0.07    3.92    4.22    5.16    6.32    7.19    3.86    2.36    1.89    1.35    1.32
 1991 205    41    30     1    60.6    58.5     2.1   40.62   70.94    0.12    0.00    0.00   40.62   51.20    0.29    0.00    3.47     3.2     3.9    5.26    7.00    3.80    2.31    1.84    1.32    1.28    0.13    0.13    0.13    0.12    0.11    0.11    0.09    0.09    0.07    0.07    3.60    3.28    4.00    5.38    7.11    3.91    2.40    1.93    1.38    1.35
 1991 206    42    30     1    56.9    54.9     2.0   41.50   71.88    0.12    0.00    0.00   41.50   55.78    0.29    0.00    3.36     2.3     2.7    4.06    6.84    3.85    2.35    1.88    1.35    1.31    0.12    0.12    0.12    0.12    0.11    0.11    0.09    0.09    0.07    0.07    3.48    2.37    2.87    4.18    6.95    3.96    2.44    1.97    1.41    1.38
 1991 207    43    30     1    52.9    51.0     2.0   42.38   72.81    0.12    0.00    0.00   42.38   60.62    0.29    0.00    1.62     2.1     2.1    2.69    6.54    3.90    2.40    1.92    1.38    1.34    0.10    0.10    0.10    0.11    0.11    0.11    0.09    0.09    0.07    0.07    1.72    2.24    2.25    2.80    6.65    4.01    2.48    2.01    1.44    1.41
 1991 208    44    30     1    48.8    46.9     2.0   43.33   73.73    0.12    0.00    0.00   43.33   65.66    0.29    0.00    0.48     0.9     1.1    1.92    6.24    3.95    2.44    1.96    1.41    1.37    0.14    0.13    0.12    0.10    0.11    0.11    0.09    0.09    0.07    0.07    0.63    1.00    1.18    2.02    6.34    4.06    2.52    2.05    1.47    1.44
 1991 209    45    30     1    47.0    45.0     2.0   44.29   74.63    0.12    0.00    0.00   44.29   68.45    0.29    0.00    0.28     0.4     0.5    1.41    5.92    3.98    2.47    2.00    1.44    1.40    0.17    0.15    0.14    0.09    0.11    0.11    0.09    0.09    0.07    0.07    0.45    0.55    0.66    1.51    6.03    4.09    2.56    2.09    1.50    1.47
 1991 210    46    30     1    46.0    44.0     2.1   45.25   75.58    0.12    0.00    0.00   45.25   70.37    0.29    0.00    0.34     0.3     0.4    0.99    5.58    4.01    2.51    2.04    1.47    1.43    0.16    0.15    0.15    0.10    0.11    0.11    0.09    0.09    0.07    0.07    0.50    0.47    0.50    1.09    5.69    4.11    2.60    2.13    1.53    1.50
 1991 211    47    60     2    60.2    43.4    16.9   46.20   76.51    0.12    0.00    0.00   46.20   71.93    0.29    0.00    0.22     0.3     0.4    0.75    5.24    3.98    2.54    2.08    1.49    1.46   24.81    0.15    0.15    0.11    0.11    0.11    0.09    0.09    0.07    0.07   25.03    0.47    0.54    0.86    5.34    4.09    2.63    2.17    1.56    1.53
 1991 212    48    60     2    58.0    44.6    13.4   47.14   79.21    0.12    0.00    0.00   47.14   82.49    0.29    0.00    3.26     0.3     0.3    0.58    4.92    3.89    2.58    2.11    1.52    1.49   18.96    0.16    0.16    0.11    0.11    0.11    0.09    0.09    0.07    0.07   22.22    0.45    0.47    0.69    5.03    4.00    2.67    2.20    1.59    1.55
 1991 213    49    60     2    57.2    47.3     9.9   48.05   83.35    0.12    0.00    0.00   48.05   87.84    0.29    0.00    6.87     0.6     0.4    0.55    4.78    3.85    2.61    2.15    1.55    1.51   11.90    0.81    0.16    0.12    0.11    0.11    0.09    0.09    0.07    0.07   18.77    1.40    0.59    0.67    4.89    3.96    2.70    2.24    1.62    1.58
 1991 214    50    60     2    54.8    47.3     7.5   48.98   85.94    0.12    0.00    0.00   48.98   93.22    0.29    0.00    6.19     0.8     0.4    0.51    4.54    3.88    2.68    2.18    1.58    1.54    6.23    1.40    0.56    0.12    0.11    0.11    0.09    0.09    0.07    0.07   12.43    2.24    0.94    0.63    4.65    3.99    2.76    2.27    1.64    1.61
 1991 215    51    60     2    50.5    45.8     4.6   49.93   88.26    0.12    0.00    0.00   49.93   99.49    0.29    0.00    4.14     0.8     0.5    0.43    4.30    3.78    2.71    2.22    1.60    1.57    2.09    0.99    0.62    0.16    0.11    0.11    0.09    0.09    0.07    0.07    6.24    1.80    1.12    0.59    4.41    3.89    2.80    2.31    1.67    1.64
 1991 216    52    60     2    47.6    44.1     3.4   50.87   89.92    0.12    0.00    0.00   50.87  103.86    0.29    0.00    2.09     0.6     0.5    0.37    4.05    3.65    2.75    2.26    1.63    1.60    0.89    0.66    0.49    0.16    0.11    0.11    0.09    0.09    0.07    0.07    2.98    1.28    0.99    0.53    4.16    3.76    2.83    2.35    1.70    1.67
 1991 217    53    60     2    46.2    43.3     2.9   51.81   91.39    0.12    0.00    0.00   51.81  106.47    0.29    0.00    0.65     0.6     0.6    0.36    3.83    3.53    2.79    2.30    1.66    1.63    0.54    0.47    0.38    0.15    0.11    0.11    0.09    0.09    0.07    0.07    1.19    1.10    0.99    0.51    3.94    3.64    2.87    2.39    1.73    1.69
 1991 218    54    60     2    45.4    42.7     2.7   52.77   92.62    0.12    0.00    0.00   52.77  108.32    0.29    0.00    0.35     0.4     0.4    0.36    3.62    3.40    2.82    2.34    1.69    1.66    0.43    0.41    0.37    0.15    0.11    0.11    0.09    0.09    0.07    0.07    0.77    0.83    0.80    0.51    3.73    3.51    2.91    2.43    1.76    1.72
 1991 219    55    60     2    45.1    42.5     2.6   53.73   93.80    0.12    0.00    0.00   53.73  109.61    0.29    0.00    0.36     0.4     0.4    0.33    3.18    3.29    2.93    2.44    1.75    1.70    0.37    0.33    0.34    0.15    0.11    0.11    0.09    0.09    0.07    0.07    0.73    0.73    0.71    0.48    3.29    3.40    3.01    2.53    1.81    1.77
 1991 220    56    60     2    45.0    42.6     2.4   54.67   94.97    0.12    0.00    0.00   54.67  110.75    0.29    0.00    0.36     0.4     0.4    0.34    3.01    3.14    2.96    2.48    1.77    1.73    0.27    0.25    0.27    0.15    0.11    0.11    0.09    0.09    0.07    0.07    0.63    0.66    0.69    0.49    3.13    3.25    3.05    2.56    1.84    1.80
 1991 221    57    60     2    44.7    42.4     2.3   55.62   96.04    0.12    0.00    0.00   55.62  111.93    0.33    0.00    0.32     0.4     0.4    0.33    2.80    3.01    3.01    2.52    1.81    1.76    0.26    0.21    0.22    0.14    0.11    0.11    0.09    0.09    0.07    0.07    0.58    0.57    0.59    0.47    2.91    3.12    3.09    2.61    1.87    1.83
 1991 222    58    60     2    44.6    42.4     2.2   56.55   97.04    0.12    0.00    0.00   56.55  112.96    0.33    0.00    0.31     0.4     0.4    0.33    2.66    2.86    3.04    2.56    1.83    1.79    0.22    0.19    0.20    0.14    0.11    0.11    0.09    0.09    0.07    0.07    0.52    0.54    0.57    0.46    2.77    2.97    3.13    2.65    1.90    1.86
 1991 223    59    60     2    44.6    42.4     2.2   57.48   98.01    0.12    0.00    0.00   57.48  113.95    0.33    0.00    0.29     0.3     0.3    0.32    2.53    2.72    3.08    2.60    1.86    1.82    0.22    0.18    0.18    0.13    0.11    0.11    0.09    0.09    0.07    0.07    0.51    0.50    0.52    0.45    2.65    2.83    3.17    2.69    1.93    1.88
 1991 224    60    60     2    44.6    42.4     2.2   58.41   98.97    0.12    0.00    0.00   58.41  114.84    0.33    0.00    0.34     0.3     0.3    0.31    2.41    2.59    3.11    2.64    1.89    1.84    0.20    0.17    0.17    0.13    0.11    0.11    0.09    0.09    0.07    0.07    0.54    0.50    0.50    0.44    2.52    2.70    3.20    2.72    1.96    1.91
 1991 225    61    60     2    44.6    42.5     2.2   59.34   99.94    0.12    0.00    0.00   59.34  115.72    0.33    0.00    0.35     0.3     0.3    0.32    2.30    2.46    3.15    2.67    1.92    1.87    0.18    0.16    0.16    0.13    0.11    0.11    0.09    0.09    0.07    0.07    0.52    0.49    0.49    0.44    2.41    2.57    3.24    2.76    1.99    1.94
 1991 226    62    60     2    44.7    42.6     2.1   60.27  100.89    0.12    0.00    0.00   60.27  116.57    0.33    0.00    0.33     0.3     0.3    0.31    2.19    2.34    3.19    2.71    1.95    1.90    0.17    0.16    0.16    0.13    0.11    0.11    0.09    0.09    0.07    0.07    0.50    0.48    0.48    0.43    2.30    2.45    3.28    2.80    2.01    1.97
 1991 227    63    60     2    44.9    42.8     2.1   61.20  101.86    0.12    0.00    0.00   61.20  117.37    0.33    0.00    0.18     0.3     0.4    0.34    2.09    2.23    3.23    2.75    1.98    1.93    0.16    0.14    0.14    0.12    0.11    0.11    0.09    0.09    0.07    0.07    0.34    0.46    0.53    0.47    2.20    2.34    3.32    2.84    2.04    2.00
 1991 228    64    60     2    45.0    42.8     2.1   62.15  102.76    0.12    0.00    0.00   62.15  118.19    0.33    0.00    0.15     0.3     0.3    0.33    1.99    2.19    3.27    2.79    2.01    1.96    0.19    0.16    0.16    0.12    0.11    0.11    0.09    0.09    0.07    0.07    0.33    0.43    0.46    0.45    2.10    2.30    3.36    2.88    2.07    2.03
 1991 229    65    60     2    44.8    42.5     2.2   63.09  103.63    0.12    0.00    0.00   63.09  118.84    0.84    0.00    0.19     0.3     0.3    0.29    1.64    2.05    3.16    2.88    2.06    2.00    0.20    0.18    0.18    0.13    0.12    0.11    0.09    0.09    0.07    0.07    0.39    0.46    0.46    0.42    1.76    2.16    3.25    2.97    2.13    2.07
 1991 230    66    60     2    45.0    42.9     2.2   64.02  104.58    0.12    0.00    0.00   64.02  119.37    0.95    0.00    0.27     0.3     0.3    0.31    1.54    1.96    3.16    2.93    2.10    2.03    0.19    0.18    0.18    0.13    0.12    0.11    0.09    0.09    0.07    0.07    0.46    0.49    0.49    0.43    1.65    2.07    3.25    3.01    2.16    2.10
 1991 231    67    60     2    45.3    43.2     2.2   64.95  105.55    0.12    0.00    0.00   64.95  120.00    0.95    0.00    0.34     0.3     0.3    0.31    1.48    1.88    3.20    2.96    2.12    2.06    0.18    0.17    0.17    0.13    0.11    0.11    0.09    0.09    0.07    0.07    0.52    0.50    0.50    0.44    1.60    1.99    3.29    3.05    2.19    2.12
 1991 232    68    60     2    45.6    43.5     2.1   65.90  106.51    0.12    0.00    0.00   65.90  120.69    0.95    0.00    0.17     0.3     0.4    0.34    1.41    1.83    3.24    3.02    2.15    2.09    0.17    0.16    0.16    0.12    0.11    0.11    0.09    0.09    0.07    0.07    0.34    0.46    0.52    0.47    1.53    1.94    3.33    3.11    2.22    2.15
 1991 233    69    60     2    45.3    43.1     2.2   66.86  107.41    0.12    0.00    0.00   66.86  121.33    1.58    0.00    0.21     0.3     0.3    0.29    1.21    1.68    3.05    3.06    2.21    2.13    0.19    0.18    0.18    0.13    0.12    0.11    0.09    0.09    0.07    0.07    0.40    0.46    0.46    0.42    1.33    1.79    3.14    3.15    2.27    2.19
 1991 234    70    60     2    45.8    43.6     2.2   67.85  108.44    0.12    0.00    0.00   67.85  121.79    1.60    0.00    0.30     0.3     0.3    0.32    1.17    1.63    3.08    3.10    2.24    2.16    0.18    0.17    0.17    0.12    0.11    0.11    0.09    0.09    0.07    0.07    0.48    0.50    0.50    0.44    1.28    1.74    3.17    3.19    2.31    2.22
 1991 235    71    60     2    46.2    44.0     2.1   68.83  109.45    0.12    0.00    0.00   68.83  122.39    1.60    0.00    0.34     0.3     0.3    0.31    1.15    1.58    3.12    3.14    2.27    2.19    0.16    0.16    0.16    0.12    0.11    0.11    0.09    0.09    0.07    0.07    0.51    0.50    0.50    0.44    1.26    1.69    3.21    3.23    2.33    2.25
 1991 236    72    60     2    46.5    44.4     2.1   69.80  110.43    0.12    0.00    0.00   69.80  123.03    1.60    0.00    0.18     0.3     0.4    0.34    1.12    1.55    3.16    3.18    2.30    2.22    0.16    0.16    0.16    0.12    0.11    0.11    0.09    0.09    0.07    0.07    0.34    0.46    0.52    0.47    1.23    1.66    3.25    3.27    2.36    2.28
 1991 237    73    60     2    46.2    44.0     2.2   70.74  111.30    0.12    0.00    0.00   70.74  123.62    2.22    0.00    0.21     0.3     0.3    0.29    0.97    1.43    2.96    3.18    2.34    2.26    0.19    0.18    0.18    0.12    0.12    0.11    0.09    0.09    0.07    0.07    0.39    0.45    0.46    0.42    1.09    1.54    3.06    3.27    2.41    2.32
 1991 238    74    60     2    46.8    44.6     2.2   71.67  112.24    0.12    0.00    0.00   71.67  124.01    2.23    0.00    0.29     0.3     0.3    0.31    0.96    1.40    3.00    3.21    2.37    2.29    0.18    0.17    0.17    0.12    0.12    0.11    0.09    0.09    0.07    0.07    0.46    0.49    0.49    0.43    1.07    1.51    3.09    3.31    2.44    2.35
 1991 239    75    60     2    47.2    45.0     2.2   72.61  113.20    0.12    0.00    0.00   72.61  124.52    2.23    0.00    0.34     0.3     0.3    0.31    0.94    1.36    3.04    3.25    2.40    2.31    0.17    0.17    0.17    0.12    0.11    0.11    0.09    0.09    0.07    0.07    0.51    0.50    0.50    0.43    1.06    1.47    3.13    3.34    2.47    2.38
 1991 240    76    60     2    47.6    45.4     2.1   73.56  114.17    0.12    0.00    0.00   73.56  125.08    2.23    0.00    0.34     0.3     0.3    0.31    0.93    1.32    3.07    3.29    2.43    2.34    0.16    0.16    0.16    0.12    0.11    0.11    0.09    0.09    0.07    0.07    0.50    0.49    0.49    0.43    1.04    1.43    3.17    3.38    2.50    2.41
 1991 241    77    60     2    48.0    45.8     2.1   74.52  115.14    0.12    0.00    0.00   74.52  125.64    2.23    0.00    0.33     0.3     0.3    0.31    0.92    1.28    3.11    3.33    2.46    2.37    0.16    0.16    0.16    0.12    0.11    0.11    0.09    0.09    0.07    0.07    0.49    0.49    0.49    0.43    1.03    1.39    3.21    3.42    2.53    2.44
 1991 242    78    60     2    48.4    46.2     2.1   75.47  116.11    0.12    0.00    0.00   75.47  126.18    2.23    0.00    0.33     0.3     0.3    0.31    0.91    1.25    3.15    3.36    2.49    2.40    0.16    0.15    0.15    0.12    0.11    0.11    0.09    0.09    0.07    0.07    0.49    0.48    0.48    0.43    1.02    1.36    3.24    3.46    2.55    2.47
 1991 243    79    60     2    48.8    46.7     2.1   76.42  117.09    0.12    0.00    0.00   76.42  126.72    2.23    0.00    0.34     0.3     0.3    0.31    0.90    1.22    3.20    3.40    2.52    2.43    0.15    0.14    0.14    0.12    0.11    0.11    0.09    0.09    0.07    0.07    0.49    0.46    0.47    0.43    1.01    1.33    3.28    3.50    2.58    2.50
 1991 244    80    60     2    49.2    47.1     2.0   77.37  118.07    0.12    0.00    0.00   77.37  127.25    2.23    0.00    0.18     0.3     0.4    0.35    0.90    1.20    3.24    3.44    2.55    2.46    0.15    0.13    0.13    0.12    0.11    0.11    0.09    0.09    0.07    0.07    0.32    0.44    0.52    0.47    1.00    1.30    3.32    3.53    2.61    2.52
 1991 245    81    60     2    49.6    47.5     2.1   78.36  119.00    0.12    0.00    0.00   78.36  127.82    2.23    0.00    0.21     0.3     0.3    0.32    0.91    1.17    3.28    3.48    2.58    2.49    0.18    0.16    0.16    0.12    0.11    0.11    0.09    0.09    0.07    0.07    0.39    0.43    0.44    0.44    1.02    1.28    3.36    3.57    2.64    2.55
 1991 246    82    60     2    50.2    48.1     2.1   79.36  120.02    0.12    0.00    0.00   79.36  128.23    2.23    0.00    0.29     0.3     0.3    0.32    0.91    1.15    3.32    3.52    2.61    2.52    0.17    0.16    0.15    0.12    0.11    0.11    0.09    0.09    0.07    0.07    0.46    0.48    0.48    0.44    1.02    1.26    3.41    3.61    2.67    2.58
 1991 247    83    60     2    50.7    48.6     2.1   80.37  121.04    0.12    0.00    0.00   80.37  128.74    2.23    0.00    0.35     0.3     0.3    0.31    0.90    1.13    3.36    3.56    2.64    2.55    0.16    0.15    0.15    0.12    0.11    0.11    0.09    0.09    0.07    0.07    0.51    0.48    0.48    0.43    1.01    1.24    3.45    3.65    2.70    2.61
 1991 248    84    60     2    51.1    49.1     2.1   81.38  122.06    0.12    0.00    0.00   81.38  129.28    2.23    0.00    0.34     0.3     0.3    0.31    0.90    1.11    3.40    3.61    2.67    2.58    0.16    0.15    0.15    0.12    0.11    0.11    0.09    0.09    0.07    0.07    0.49    0.48    0.48    0.43    1.00    1.21    3.49    3.69    2.73    2.64
 1991 249    85    60     2    51.6    49.5     2.1   82.38  123.07    0.12    0.00    0.00   82.38  129.81    2.23    0.00    0.33     0.3     0.3    0.31    0.89    1.09    3.44    3.65    2.70    2.61    0.15    0.15    0.15    0.12    0.11    0.10    0.09    0.09    0.07    0.07    0.49    0.48    0.48    0.43    1.00    1.19    3.53    3.73    2.76    2.67
 1991 250    86    60     2    52.1    50.0     2.0   83.37  124.10    0.12    0.00    0.00   83.37  130.34    2.23    0.00    0.34     0.3     0.3    0.31    0.88    1.07    3.49    3.69    2.73    2.64    0.14    0.14    0.14    0.12    0.11    0.10    0.09    0.09    0.06    0.07    0.48    0.47    0.47    0.43    0.99    1.17    3.57    3.78    2.80    2.71
 1991 251    87    60     2    52.5    50.6     2.0   84.37  125.15    0.12    0.00    0.00   84.37  130.87    2.23    0.00    0.33     0.3     0.3    0.32    0.88    1.05    3.53    3.74    2.76    2.67    0.13    0.12    0.13    0.12    0.11    0.10    0.09    0.09    0.06    0.06    0.46    0.45    0.45    0.43    0.99    1.14    3.62    3.82    2.83    2.74
 1991 252    88    60     2    53.0    51.1     1.9   85.35  126.20    0.12    0.00    0.00   85.35  131.39    2.23    0.00    0.33     0.3     0.3    0.32    0.88    1.03    3.58    3.78    2.80    2.71    0.12    0.11    0.11    0.11    0.10    0.09    0.08    0.08    0.06    0.06    0.45    0.43    0.44    0.42    0.98    1.12    3.66    3.86    2.86    2.77
 1991 253    89    60     2    53.4    51.6     1.8   86.31  127.22    0.12    0.00    0.00   86.31  131.88    2.23    0.00    0.36     0.3     0.3    0.31    0.88    1.01    3.62    3.82    2.83    2.74    0.11    0.10    0.10    0.10    0.10    0.09    0.08    0.08    0.06    0.06    0.46    0.42    0.42    0.41    0.98    1.10    3.71    3.91    2.89    2.80
 1991 254    90    60     2    53.9    52.2     1.8   87.26  128.22    0.12    0.00    0.00   87.26  132.33    2.23    0.00    0.23     0.4     0.4    0.31    0.87    0.99    3.67    3.87    2.86    2.77    0.10    0.10    0.10    0.09    0.09    0.08    0.08    0.08    0.06    0.06    0.32    0.46    0.48    0.40    0.97    1.07    3.75    3.95    2.93    2.84
 1991 255    91    60     2    54.4    52.6     1.8   88.25  129.17    0.12    0.00    0.00   88.25  132.87    2.23    0.00    0.15     0.3     0.3    0.35    0.87    0.97    3.71    3.91    2.90    2.80    0.15    0.13    0.13    0.08    0.09    0.08    0.08    0.08    0.06    0.06    0.30    0.40    0.46    0.43    0.96    1.05    3.80    4.00    2.96    2.87
 1991 256    92    60     2    54.9    53.0     1.9   89.26  130.07    0.12    0.00    0.00   89.26  133.34    2.23    0.00    0.20     0.3     0.3    0.33    0.86    0.95    3.76    3.96    2.93    2.83    0.18    0.16    0.16    0.10    0.09    0.08    0.08    0.08    0.06    0.06    0.37    0.43    0.43    0.42    0.95    1.03    3.84    4.04    2.99    2.90
 1991 257    93    60     2    55.5    53.6     1.9   90.27  131.09    0.12    0.00    0.00   90.27  133.72    2.23    0.00    0.30     0.3     0.3    0.32    0.86    0.94    3.80    4.00    2.96    2.87    0.16    0.16    0.16    0.11    0.08    0.07    0.08    0.08    0.06    0.06    0.46    0.48    0.49    0.42    0.94    1.01    3.88    4.08    3.02    2.93
 1991 258    94    60     2    56.1    54.1     1.9   91.28  132.11    0.12    0.00    0.00   91.28  134.22    2.23    0.00    0.35     0.3     0.3    0.31    0.84    0.92    3.84    4.04    2.99    2.90    0.15    0.15    0.15    0.11    0.08    0.07    0.08    0.08    0.06    0.06    0.51    0.49    0.49    0.43    0.93    0.99    3.92    4.12    3.05    2.96
 1991 259    95    60     2    56.5    54.6     1.9   92.29  133.13    0.12    0.00    0.00   92.29  134.75    2.23    0.00    0.34     0.3     0.3    0.31    0.83    0.90    3.88    4.08    3.02    2.93    0.15    0.15    0.15    0.11    0.08    0.07    0.08    0.08    0.06    0.06    0.49    0.48    0.49    0.43    0.91    0.97    3.97    4.16    3.08    2.99
 1991 260    96    60     2    57.0    55.1     1.9   93.29  134.16    0.12    0.00    0.00   93.29  135.26    2.23    0.00    0.34     0.3     0.3    0.32    0.82    0.88    3.93    4.12    3.05    2.96    0.14    0.15    0.15    0.11    0.08    0.06    0.08    0.08    0.06    0.06    0.48    0.48    0.48    0.43    0.90    0.95    4.01    4.21    3.12    3.02
 1991 261    97    60     2    57.5    55.7     1.8   94.29  135.22    0.12    0.00    0.00   94.29  135.76    2.23    0.00    0.34     0.3     0.3    0.32    0.81    0.87    3.98    4.17    3.09    2.99    0.13    0.13    0.13    0.11    0.07    0.06    0.08    0.08    0.06    0.06    0.47    0.47    0.47    0.43    0.88    0.93    4.06    4.25    3.15    3.06
 1991 262    98    60     2    58.0    56.2     1.8   95.25  136.21    0.12    0.00    0.00   95.25  136.27    2.23    0.00    0.33     0.3     0.3    0.32    0.80    0.86    4.02    4.22    3.12    3.03    0.12    0.12    0.12    0.11    0.07    0.06    0.08    0.08    0.06    0.06    0.45    0.45    0.45    0.42    0.87    0.91    4.10    4.30    3.18    3.09
 1991 263    99    60     2    58.4    56.7     1.7   96.17  137.17    0.12    0.00    0.00   96.17  136.73    2.23    0.00    0.33     0.3     0.3    0.31    0.78    0.85    4.07    4.26    3.15    3.06    0.11    0.11    0.12    0.10    0.07    0.05    0.08    0.08    0.06    0.06    0.44    0.43    0.44    0.41    0.85    0.90    4.15    4.34    3.22    3.12
 1991 264   100    60     2    58.9    57.2     1.7   97.05  138.11    0.12    0.00    0.00   97.05  137.13    2.23    0.00    0.37     0.3     0.3    0.31    0.77    0.84    4.11    4.30    3.19    3.09    0.10    0.10    0.11    0.09    0.06    0.05    0.08    0.08    0.06    0.06    0.47    0.42    0.42    0.40    0.83    0.89    4.19    4.39    3.25    3.16
 1991 265   101    60     2    59.4    57.8     1.6   97.91  139.01    0.12    0.00    0.00   97.91  137.47    2.23    0.00    0.43     0.3     0.3    0.30    0.77    0.83    4.16    4.35    3.22    3.12    0.09    0.10    0.10    0.08    0.06    0.05    0.08    0.08    0.06    0.06    0.52    0.41    0.41    0.38    0.82    0.88    4.24    4.43    3.28    3.19
 1991 266   102    60     2    59.9    58.3     1.6   98.72  139.84    0.12    0.00    0.00   98.72  137.79    2.23    0.00    0.48     0.3     0.3    0.29    0.76    0.82    4.20    4.39    3.25    3.16    0.09    0.09    0.10    0.07    0.05    0.05    0.08    0.08    0.06    0.06    0.57    0.40    0.40    0.37    0.81    0.87    4.28    4.47    3.32    3.22
 1991 267   103    60     2    60.4    58.8     1.6   99.53  140.69    0.12    0.00    0.00   99.53  138.07    2.23    0.00    0.54     0.3     0.3    0.29    0.76    0.82    4.24    4.43    3.28    3.19    0.08    0.09    0.09    0.06    0.05    0.05    0.08    0.08    0.06    0.06    0.62    0.39    0.40    0.35    0.81    0.87    4.33    4.52    3.35    3.25
 1991 268   104    60     2    60.9    59.4     1.6  100.31  141.51    0.12    0.00    0.00  100.31  138.32    2.23    0.00    0.58     0.3     0.3    0.28    0.76    0.82    4.29    4.48    3.32    3.22    0.08    0.08    0.08    0.06    0.05    0.05    0.08    0.08    0.06    0.06    0.66    0.38    0.39    0.34    0.81    0.86    4.37    4.56    3.38    3.28
 1991 269   105    60     2    61.5    59.9     1.5  101.05  142.27    0.12    0.00    0.00  101.05  138.54    2.23    0.00    0.62     0.3     0.3    0.28    0.76    0.82    4.33    4.52    3.35    3.25    0.07    0.07    0.08    0.05    0.05    0.04    0.08    0.08    0.06    0.06    0.70    0.37    0.37    0.33    0.81    0.86    4.41    4.60    3.41    3.31
 1991 270   106    60     2    62.0    60.5     1.5  101.76  142.99    0.12    0.00    0.00  101.76  138.72    2.23    0.00    0.66     0.3     0.3    0.28    0.76    0.82    4.37    4.56    3.38    3.28    0.07    0.07    0.07    0.05    0.04    0.04    0.09    0.09    0.06    0.06    0.73    0.35    0.36    0.33    0.81    0.87    4.46    4.65    3.44    3.35
 1991 271   107    60     2    62.5    61.0     1.5  102.46  143.71    0.12    0.00    0.00  102.46  138.87    2.23    0.00    0.69     0.3     0.3    0.28    0.77    0.83    4.41    4.60    3.41    3.31    0.06    0.06    0.06    0.05    0.04    0.04    0.09    0.09    0.06    0.06    0.76    0.34    0.35    0.33    0.81    0.87    4.50    4.69    3.48    3.38
 1991 272   108    60     2    63.1    61.6     1.5  103.13  144.40    0.12    0.00    0.00  103.13  139.00    2.23    0.00    0.72     0.3     0.3    0.29    0.78    0.83    4.45    4.64    3.44    3.34    0.06    0.05    0.06    0.04    0.04    0.04    0.09    0.09    0.06    0.07    0.78    0.34    0.34    0.33    0.82    0.88    4.54    4.73    3.51    3.41
 1991 273   109    60     2    63.7    62.2     1.5  103.81  145.09    0.12    0.00    0.00  103.81  139.09    2.23    0.00    0.74     0.3     0.3    0.29    0.78    0.84    4.50    4.69    3.47    3.37    0.06    0.05    0.05    0.04    0.04    0.04    0.09    0.09    0.06    0.07    0.80    0.34    0.34    0.34    0.83    0.88    4.58    4.77    3.54    3.44
 1991 274   110    60     2    64.3    62.8     1.4  104.49  145.80    0.12    0.00    0.00  104.49  139.17    2.23    0.00    0.77     0.3     0.3    0.30    0.79    0.85    4.54    4.73    3.50    3.41    0.06    0.04    0.05    0.04    0.04    0.04    0.09    0.09    0.06    0.06    0.83    0.35    0.34    0.35    0.83    0.89    4.63    4.81    3.57    3.47
 1991 275   111    60     2    64.9    63.5     1.4  105.19  146.51    0.12    0.00    0.00  105.19  139.22    2.23    0.00    0.79     0.3     0.3    0.32    0.80    0.86    4.59    4.77    3.54    3.44    0.06    0.04    0.04    0.04    0.04    0.04    0.08    0.08    0.06    0.06    0.85    0.36    0.35    0.36    0.84    0.90    4.67    4.86    3.60    3.50
 1991 276   112    60     2    65.6    64.2     1.4  105.90  147.25    0.12    0.00    0.00  105.90  139.25    2.23    0.00    0.82     0.3     0.3    0.33    0.81    0.87    4.63    4.82    3.57    3.47    0.06    0.04    0.04    0.04    0.04    0.04    0.08    0.08    0.06    0.06    0.88    0.38    0.36    0.37    0.85    0.91    4.72    4.90    3.64    3.54
 1991 277   113    60     2    66.3    64.9     1.4  106.63  148.01    0.12    0.00    0.00  106.63  139.27    2.23    0.00    0.85     0.4     0.3    0.35    0.83    0.88    4.68    4.87    3.61    3.51    0.06    0.03    0.04    0.04    0.04    0.04    0.08    0.08    0.06    0.06    0.90    0.40    0.38    0.39    0.86    0.92    4.76    4.95    3.67    3.57
 1991 278   114    60     2    67.0    65.7     1.3  107.37  148.77    0.12    0.00    0.00  107.37  139.29    2.23    0.00    0.87     0.4     0.4    0.37    0.84    0.90    4.73    4.92    3.64    3.54    0.06    0.03    0.03    0.03    0.04    0.04    0.08    0.08    0.06    0.06    0.93    0.42    0.40    0.41    0.88    0.93    4.81    5.00    3.71    3.60
 1991 279   115    60     2    67.7    66.4     1.3  108.10  149.50    0.12    0.00    0.00  108.10  139.30    2.23    0.00    0.90     0.4     0.4    0.39    0.85    0.91    4.78    4.96    3.68    3.58    0.06    0.03    0.03    0.03    0.04    0.04    0.08    0.08    0.06    0.06    0.96    0.44    0.42    0.42    0.89    0.95    4.86    5.04    3.74    3.64
 1991 280   116    60     2    68.3    67.0     1.4  108.85  150.24    0.12    0.00    0.00  108.85  139.43    2.23    0.00    0.75     0.4     0.4    0.41    0.87    0.93    4.83    5.01    3.71    3.61    0.08    0.03    0.03    0.03    0.04    0.04    0.08    0.08    0.06    0.06    0.83    0.46    0.45    0.44    0.90    0.96    4.91    5.09    3.77    3.67
 1991 281   117    60     2    69.0    67.7     1.4  109.58  150.96    0.12    0.00    0.00  109.58  139.44    2.23    0.00    0.79     0.4     0.4    0.42    0.88    0.94    4.87    5.05    3.75    3.64    0.08    0.03    0.03    0.03    0.04    0.04    0.08    0.08    0.06    0.06    0.88    0.48    0.47    0.46    0.92    0.98    4.95    5.14    3.81    3.71
 1991 282   118    60     2    69.7    68.4     1.4  110.30  151.67    0.12    0.00    0.00  110.30  139.45    2.23    0.00    0.85     0.5     0.5    0.44    0.89    0.95    4.92    5.10    3.78    3.67    0.08    0.03    0.03    0.04    0.04    0.04    0.08    0.08    0.06    0.06    0.93    0.50    0.49    0.48    0.93    0.99    5.00    5.18    3.84    3.74
 1991 283   119    60     2    70.4    69.1     1.4  111.00  152.37    0.12    0.00    0.00  111.00  139.45    2.23    0.00    0.90     0.5     0.5    0.46    0.91    0.97    4.96    5.14    3.81    3.71    0.07    0.03    0.03    0.04    0.04    0.04    0.08    0.08    0.06    0.06    0.98    0.52    0.51    0.49    0.94    1.00    5.04    5.22    3.87    3.77
 1991 284   120    60     2    71.1    69.8     1.4  111.70  153.07    0.12    0.00    0.00  111.70  139.45    2.23    0.00    0.95     0.5     0.5    0.47    0.92    0.98    5.00    5.19    3.85    3.74    0.07    0.03    0.03    0.04    0.04    0.04    0.08    0.08    0.06    0.06    1.02    0.54    0.53    0.51    0.96    1.02    5.09    5.27    3.91    3.80
 1991 285   121    60     2    71.8    70.5     1.4  112.40  153.78    0.12    0.00    0.00  112.40  139.45    2.23    0.00    0.99     0.5     0.5    0.49    0.94    1.00    5.05    5.23    3.88    3.77    0.07    0.03    0.03    0.04    0.04    0.04    0.08    0.08    0.06    0.06    1.06    0.56    0.55    0.53    0.97    1.03    5.13    5.31    3.94    3.84
 1991 286   122    60     2    72.5    71.2     1.4  113.12  154.50    0.12    0.00    0.00  113.12  139.45    2.23    0.00    1.03     0.5     0.5    0.51    0.95    1.01    5.10    5.28    3.91    3.81    0.06    0.03    0.03    0.04    0.04    0.04    0.08    0.08    0.06    0.06    1.10    0.58    0.57    0.54    0.99    1.05    5.18    5.36    3.98    3.87
 1991 287   123    60     2    73.2    71.9     1.4  113.82  155.20    0.12    0.00    0.00  113.82  139.45    2.23    0.00    1.07     0.6     0.6    0.52    0.97    1.03    5.14    5.32    3.95    3.84    0.06    0.03    0.03    0.04    0.04    0.04    0.08    0.08    0.06    0.06    1.13    0.60    0.59    0.56    1.00    1.06    5.22    5.40    4.01    3.90
 1991 288   124    60     2    73.9    72.6     1.4  114.50  155.88    0.12    0.00    0.00  114.50  139.45    2.23    0.00    1.10     0.6     0.6    0.54    0.98    1.04    5.19    5.37    3.98    3.87    0.05    0.03    0.03    0.04    0.04    0.04    0.08    0.08    0.06    0.06    1.16    0.62    0.61    0.57    1.02    1.08    5.27    5.45    4.04    3.93
 1991 289   125    60     2    74.6    73.2     1.4  115.18  156.55    0.12    0.00    0.00  115.18  139.45    2.23    0.00    1.13     0.6     0.6    0.55    1.00    1.06    5.23    5.41    4.01    3.90    0.05    0.04    0.04    0.04    0.04    0.04    0.08    0.08    0.06    0.06    1.18    0.63    0.63    0.59    1.03    1.09    5.31    5.49    4.07    3.97
 1991 290   126    60     2    75.3    73.9     1.4  115.85  157.22    0.12    0.00    0.00  115.85  139.45    2.23    0.00    1.16     0.6     0.6    0.57    1.01    1.07    5.27    5.45    4.04    3.93    0.05    0.04    0.04    0.04    0.04    0.04    0.08    0.08    0.06    0.06    1.21    0.65    0.65    0.61    1.05    1.11    5.36    5.54    4.11    4.00
 1991 291   127    60     2    75.9    74.5     1.4  116.52  157.88    0.12    0.00    0.00  116.52  139.45    2.23    0.00    1.18     0.6     0.6    0.59    1.02    1.09    5.31    5.49    4.07    3.97    0.06    0.04    0.04    0.04    0.04    0.04    0.08    0.08    0.06    0.06    1.24    0.67    0.67    0.62    1.06    1.12    5.40    5.58    4.14    4.03
 1991 292   128    60     2    76.6    75.2     1.4  117.19  158.55    0.12    0.00    0.00  117.19  139.45    2.23    0.00    1.21     0.6     0.7    0.60    1.04    1.10    5.36    5.54    4.11    4.00    0.06    0.04    0.04    0.04    0.04    0.04    0.08    0.08    0.06    0.06    1.27    0.69    0.69    0.64    1.07    1.14    5.44    5.62    4.17    4.06

*DSSAT Cropping System Model Ver. 4.7.5.008 -release  JAN 15, 2021 21:49:57

*RUN   2        : ERiMA DCC1                MZCER047 ETMZpolo    1
 MODEL          : MZCER047 - Maize
 EXPERIMENT     : ETMZpolo SN MELKSSAL
 DATA PATH      : C:\Users\kpodo\Documents\GitHub\ET_DSS_hist_Eunjin\TEST\
 TREATMENT  1   : ERiMA DCC1                MZCER047
  
!                                                                                                                              NO3 (ppm) at soil dep. (cm):                                                    NH4 (ppm) at soil dep. (cm):                                                    Total Inorganic N @dep(ppm):
!                                                                                                                               0-5    5-15   15-20   20-35   35-50   50-65   65-81   81-97  97-118 118-200     0-5    5-15   15-20   20-35   35-50   50-65   65-81   81-97  97-118 118-200     0-5    5-15   15-20   20-35   35-50   50-65   65-81   81-97  97-118 118-200
@YEAR DOY   DAS  NAPC  NI#M    NIAD    NITD    NHTD    NMNC    NITC    NDNC    NIMC    AMLC   NNMNC    NUCM    NLCC    TDFC    NI1D    NI2D    NI3D    NI4D    NI5D    NI6D    NI7D    NI8D    NI9D    NI10    NH1D    NH2D    NH3D    NH4D    NH5D    NH6D    NH7D    NH8D    NH9D    NH10    NT1D    NT2D    NT3D    NT4D    NT5D    NT6D    NT7D    NT8D    NT9D    NT10    
 1992 164     0     0     0    42.0    39.6     2.4    0.00    0.00    0.00    0.00    0.00    0.00    0.00    0.00    0.00   15.00    15.0    15.0    2.00    0.00    0.00    0.00    0.00    0.00    0.00    0.10    0.10    0.10    0.10    0.10    0.10    0.10    0.10    0.10    0.10   15.10   15.10   15.10    2.10    0.10    0.10    0.10    0.10    0.10    0.10
 1992 165     1     0     0    43.1    40.9     2.2    1.08    1.29    0.00    0.00    0.00    1.08    0.00    0.00    0.00   15.06    15.1    15.1    2.06    0.06    0.06    0.05    0.05    0.05    0.05    0.12    0.12    0.12    0.11    0.10    0.10    0.09    0.09    0.08    0.08   15.19   15.19   15.19    2.17    0.16    0.16    0.15    0.14    0.13    0.13
 1992 166     2    30     1    60.5    42.0    18.4    2.15    2.46    0.00    0.00    0.00    2.15    0.00    0.00    0.00   12.29    16.6    15.0    2.12    0.12    0.11    0.10    0.10    0.09    0.09   27.34    0.13    0.13    0.11    0.10    0.10    0.09    0.09    0.07    0.07   39.62   16.75   15.18    2.23    0.22    0.22    0.19    0.19    0.17    0.16
 1992 167     3    30     1    68.9    52.3    16.6    3.22   12.77    0.00    0.00    0.00    3.22    0.00    0.00    0.00   32.17    16.4    11.9    1.97    0.17    0.17    0.15    0.15    0.13    0.13   24.45    0.14    0.14    0.11    0.10    0.10    0.09    0.09    0.07    0.07   56.62   16.49   12.00    2.08    0.27    0.27    0.23    0.23    0.20    0.20
 1992 168     4    30     1    73.3    62.5    10.8    4.29   23.10    0.00    0.00    0.00    4.29    0.00    0.00    0.00   52.70    15.4     9.4    1.84    0.23    0.22    0.19    0.19    0.16    0.16   14.09    0.46    0.14    0.11    0.10    0.10    0.08    0.09    0.07    0.07   66.79   15.85    9.54    1.95    0.33    0.33    0.28    0.28    0.23    0.23
 1992 169     5    30     1    75.8    69.2     6.7    5.37   29.87    0.00    0.00    0.00    5.37    0.00    0.00    0.00   61.96    15.6     9.4    1.90    0.29    0.28    0.24    0.24    0.20    0.19    7.47    0.35    0.14    0.11    0.10    0.10    0.08    0.08    0.06    0.07   69.42   15.95    9.57    2.01    0.39    0.38    0.32    0.32    0.26    0.26
 1992 170     6    30     1    77.6    73.3     4.3    6.47   34.06    0.00    0.00    0.00    6.47    0.00    0.00    0.00   47.08    23.5    13.6    2.07    0.35    0.34    0.29    0.28    0.23    0.23    3.70    0.26    0.14    0.11    0.10    0.10    0.08    0.08    0.06    0.06   50.78   23.77   13.75    2.18    0.45    0.44    0.37    0.37    0.30    0.29
 1992 171     7    30     1    79.0    75.5     3.5    7.56   36.24    0.00    0.00    0.00    7.56    0.00    0.00    0.00   51.08    22.1    12.7    2.78    0.41    0.39    0.33    0.33    0.26    0.26    2.19    0.35    0.17    0.11    0.10    0.10    0.08    0.08    0.06    0.06   53.28   22.48   12.83    2.89    0.51    0.50    0.41    0.41    0.33    0.32
 1992 172     8    30     1    80.2    77.6     2.6    8.66   38.36    0.00    0.00    0.00    8.66    0.00    0.00    0.00   59.39    20.4    10.6    2.60    0.46    0.45    0.37    0.37    0.30    0.29    0.93    0.26    0.18    0.11    0.10    0.10    0.08    0.08    0.06    0.06   60.32   20.67   10.80    2.71    0.56    0.55    0.46    0.45    0.36    0.35
 1992 173     9    30     1    81.4    79.2     2.2    9.77   39.92    0.00    0.00    0.00    9.77    0.00    0.00    0.00   66.67    18.6     8.9    2.43    0.52    0.50    0.42    0.41    0.33    0.32    0.45    0.20    0.16    0.11    0.10    0.10    0.08    0.08    0.06    0.06   67.12   18.75    9.10    2.54    0.62    0.60    0.50    0.50    0.39    0.39
 1992 174    10    30     1    82.5    80.4     2.1   10.88   41.20    0.00    0.00    0.00   10.88    0.00    0.00    0.00   67.26    18.6     9.0    2.50    0.58    0.56    0.46    0.46    0.36    0.36    0.27    0.16    0.15    0.11    0.10    0.10    0.08    0.08    0.06    0.06   67.53   18.73    9.14    2.61    0.68    0.66    0.55    0.54    0.43    0.42
 1992 175    11    30     1    83.6    81.6     2.0   11.94   42.33    0.00    0.00    0.00   11.94    0.00    0.00    0.00   67.71    18.5     9.0    2.56    0.63    0.61    0.51    0.50    0.39    0.39    0.20    0.15    0.14    0.11    0.10    0.10    0.08    0.08    0.06    0.06   67.92   18.70    9.18    2.67    0.74    0.72    0.59    0.59    0.46    0.45
 1992 176    12    30     1    84.7    82.7     2.0   13.01   43.43    0.00    0.00    0.00   13.01    0.00    0.00    0.00   68.13    18.5     9.1    2.62    0.69    0.67    0.55    0.55    0.43    0.42    0.17    0.14    0.14    0.11    0.10    0.10    0.08    0.08    0.06    0.06   68.30   18.67    9.23    2.73    0.80    0.77    0.64    0.63    0.49    0.48
 1992 177    13    30     1    85.7    83.7     2.0   14.08   44.52    0.00    0.00    0.00   14.08    0.00    0.00    0.00   68.52    18.5     9.1    2.68    0.75    0.73    0.60    0.59    0.46    0.45    0.15    0.14    0.14    0.11    0.10    0.10    0.08    0.08    0.06    0.06   68.67   18.64    9.27    2.79    0.85    0.83    0.68    0.68    0.52    0.52
 1992 178    14    30     1    86.8    84.8     2.0   15.14   45.57    0.00    0.00    0.00   15.14    0.03    0.00    0.00   40.71    29.8    13.6    3.09    0.81    0.78    0.64    0.63    0.49    0.48    0.15    0.14    0.14    0.11    0.10    0.10    0.08    0.08    0.06    0.06   40.85   29.92   13.78    3.20    0.91    0.89    0.73    0.72    0.56    0.55
 1992 179    15    30     1    87.4    85.4     2.0   16.19   46.60    0.00    0.00    0.00   16.19    0.40    0.00    0.00   36.79    28.9    15.7    4.25    0.87    0.84    0.69    0.68    0.52    0.51    0.17    0.14    0.14    0.11    0.10    0.10    0.08    0.09    0.06    0.06   36.96   29.06   15.85    4.36    0.97    0.94    0.77    0.76    0.59    0.58
 1992 180    16    30     1    88.1    86.1     2.0   17.28   47.72    0.00    0.00    0.00   17.28    0.84    0.00    0.00   28.98    27.5    20.9    6.06    0.92    0.88    0.73    0.72    0.55    0.54    0.15    0.14    0.14    0.11    0.10    0.10    0.08    0.08    0.06    0.06   29.13   27.67   20.99    6.17    1.02    0.99    0.81    0.80    0.62    0.61
 1992 181    17    30     1    88.5    86.4     2.0   18.33   48.73    0.00    0.00    0.00   18.33    1.49    0.00    0.00   22.03    24.1    22.1    8.98    2.11    0.95    0.77    0.76    0.58    0.57    0.17    0.15    0.16    0.11    0.10    0.10    0.08    0.08    0.06    0.06   22.20   24.29   22.26    9.09    2.21    1.05    0.85    0.84    0.65    0.64
 1992 182    18    30     1    89.0    86.9     2.1   19.36   49.69    0.00    0.00    0.00   19.36    1.98    0.00    0.00   25.01    20.9    18.4    9.44    3.59    1.44    0.93    0.84    0.61    0.60    0.18    0.17    0.18    0.12    0.10    0.11    0.08    0.09    0.06    0.07   25.19   21.02   18.62    9.55    3.69    1.55    1.01    0.93    0.68    0.67
 1992 183    19    30     1    89.3    87.3     2.1   20.34   50.69    0.00    0.00    0.00   20.34    2.63    0.00    0.00   28.84    19.4    16.5    9.27    3.90    1.56    0.99    0.89    0.65    0.63    0.15    0.16    0.17    0.12    0.11    0.11    0.09    0.09    0.07    0.07   28.99   19.57   16.66    9.39    4.01    1.66    1.07    0.97    0.71    0.70
 1992 184    20    30     1    89.7    87.6     2.1   21.32   51.67    0.00    0.00    0.00   21.32    3.25    0.00    0.00   33.58    18.4    15.2    8.84    3.82    1.57    1.02    0.92    0.67    0.66    0.15    0.15    0.16    0.12    0.11    0.11    0.09    0.09    0.07    0.07   33.72   18.52   15.32    8.96    3.93    1.68    1.10    1.01    0.74    0.72
 1992 185    21    30     1    89.8    87.7     2.1   22.29   52.64    0.00    0.00    0.00   22.29    4.13    0.00    0.00   18.60    19.7    20.0   10.47    4.41    1.68    1.05    0.96    0.70    0.68    0.15    0.15    0.15    0.12    0.11    0.11    0.09    0.09    0.07    0.07   18.74   19.86   20.16   10.59    4.52    1.79    1.14    1.04    0.77    0.75
 1992 186    22    30     1    89.8    87.6     2.1   23.28   53.56    0.00    0.00    0.00   23.28    5.14    0.00    0.00   19.29    17.2    16.9   10.63    5.65    2.25    1.28    1.04    0.77    0.75    0.17    0.17    0.17    0.12    0.12    0.12    0.09    0.09    0.07    0.07   19.46   17.41   17.11   10.74    5.76    2.37    1.36    1.13    0.83    0.81
 1992 187    23    30     1    89.3    87.2     2.1   24.29   54.61    0.00    0.00    0.00   24.29    6.55    0.00    0.00   22.27    16.0    15.2   10.33    5.75    2.37    1.33    1.09    0.80    0.78    0.16    0.16    0.16    0.12    0.11    0.11    0.09    0.09    0.07    0.07   22.43   16.17   15.36   10.45    5.86    2.48    1.42    1.17    0.87    0.84
 1992 188    24    30     1    89.5    87.4     2.1   25.31   55.67    0.00    0.00    0.00   25.31    7.43    0.00    0.00   24.95    15.4    14.4    9.99    5.68    2.38    1.37    1.12    0.83    0.80    0.15    0.15    0.15    0.12    0.11    0.11    0.09    0.09    0.07    0.07   25.10   15.56   14.53   10.11    5.78    2.49    1.45    1.21    0.89    0.87
 1992 189    25    30     1    89.2    87.1     2.0   26.33   56.70    0.00    0.00    0.00   26.33    8.75    0.00    0.00   27.74    14.6    13.5    9.57    5.58    2.39    1.40    1.16    0.86    0.83    0.15    0.15    0.15    0.12    0.11    0.11    0.09    0.09    0.07    0.07   27.88   14.75   13.60    9.69    5.68    2.50    1.48    1.25    0.92    0.90
 1992 190    26    30     1    85.5    83.5     2.0   27.34   57.73    0.00    0.00    0.00   27.34   13.43    0.00    0.00   25.94    13.1    12.1    9.16    5.63    2.45    1.44    1.20    0.89    0.86    0.13    0.14    0.15    0.12    0.11    0.11    0.09    0.09    0.07    0.07   26.07   13.28   12.29    9.28    5.74    2.56    1.53    1.29    0.95    0.93
 1992 191    27    30     1    84.2    82.2     2.0   28.36   58.77    0.00    0.00    0.00   28.36   15.69    0.00    0.00   25.49    12.4    11.5    8.95    5.68    2.50    1.48    1.25    0.92    0.90    0.12    0.14    0.14    0.11    0.11    0.11    0.09    0.09    0.07    0.07   25.61   12.52   11.63    9.06    5.79    2.61    1.57    1.33    0.99    0.96
 1992 192    28    30     1    83.1    81.2     2.0   29.35   59.80    0.00    0.00    0.00   29.35   17.80    0.00    0.00   25.39    11.7    10.8    8.70    5.73    2.56    1.53    1.29    0.95    0.93    0.11    0.12    0.14    0.11    0.11    0.11    0.09    0.09    0.06    0.07   25.50   11.77   10.93    8.81    5.84    2.66    1.61    1.37    1.02    0.99
 1992 193    29    30     1    82.2    80.2     1.9   30.34   60.81    0.00    0.00    0.00   30.34   19.73    0.00    0.00   25.64    10.9    10.1    8.41    5.79    2.61    1.57    1.33    0.98    0.96    0.10    0.11    0.13    0.11    0.10    0.11    0.09    0.09    0.06    0.07   25.73   11.06   10.23    8.52    5.89    2.72    1.66    1.42    1.05    1.02
 1992 194    30    30     1    80.2    78.3     1.9   31.31   61.81    0.00    0.00    0.00   31.31   22.68    0.00    0.00   24.48    10.6     9.1    7.87    5.83    2.67    1.62    1.38    1.02    0.99    0.08    0.10    0.11    0.11    0.10    0.11    0.09    0.09    0.06    0.07   24.56   10.72    9.22    7.99    5.94    2.78    1.70    1.46    1.08    1.06
 1992 195    31    30     1    78.7    76.7     1.9   32.26   62.75    0.00    0.00    0.00   32.26   25.17    0.00    0.00   18.66    12.3     8.7    7.62    5.88    2.72    1.66    1.42    1.05    1.02    0.12    0.10    0.10    0.11    0.11    0.11    0.09    0.09    0.07    0.07   18.78   12.36    8.78    7.73    5.98    2.83    1.74    1.50    1.11    1.09
 1992 196    32    30     1    76.4    74.4     2.0   33.22   63.68    0.00    0.00    0.00   33.22   28.44    0.00    0.00   15.57    12.5     8.4    7.10    5.81    2.74    1.69    1.45    1.07    1.05    0.14    0.12    0.10    0.11    0.11    0.11    0.09    0.09    0.07    0.07   15.71   12.59    8.48    7.21    5.91    2.85    1.78    1.54    1.14    1.11
 1992 197    33    30     1    73.9    71.9     2.0   34.17   64.60    0.00    0.00    0.00   34.17   31.83    0.00    0.00   10.29    11.5    11.0    7.04    5.75    2.76    1.72    1.49    1.10    1.08    0.15    0.13    0.10    0.11    0.11    0.11    0.09    0.09    0.07    0.07   10.45   11.64   11.09    7.14    5.85    2.87    1.81    1.57    1.17    1.14
 1992 198    34    30     1    71.8    69.8     2.0   35.13   65.50    0.00    0.00    0.00   35.13   34.86    0.00    0.00    6.43     9.6    11.2    8.13    5.71    2.79    1.75    1.52    1.13    1.10    0.18    0.14    0.12    0.11    0.11    0.11    0.09    0.09    0.07    0.07    6.61    9.71   11.28    8.23    5.82    2.89    1.84    1.61    1.20    1.17
 1992 199    35    30     1    69.6    67.5     2.1   36.06   66.37    0.00    0.00    0.00   36.06   38.04    0.00    0.00    5.91     7.7     8.8    8.04    6.26    3.00    1.80    1.56    1.16    1.13    0.19    0.16    0.15    0.11    0.11    0.11    0.09    0.09    0.07    0.07    6.10    7.91    9.00    8.15    6.37    3.11    1.89    1.65    1.22    1.20
 1992 200    36    30     1    67.4    65.3     2.1   37.01   67.33    0.01    0.00    0.00   37.01   41.19    0.00    0.00    5.64     6.8     7.6    7.59    6.30    3.08    1.87    1.60    1.18    1.16    0.17    0.16    0.16    0.12    0.11    0.11    0.09    0.09    0.07    0.07    5.81    6.91    7.74    7.70    6.41    3.19    1.96    1.68    1.25    1.23
 1992 201    37    30     1    63.8    61.7     2.1   37.95   68.27    0.01    0.00    0.00   37.95   45.72    0.00    0.00    5.23     5.5     6.3    6.76    6.23    3.10    1.90    1.63    1.21    1.19    0.16    0.15    0.15    0.12    0.11    0.11    0.09    0.09    0.07    0.07    5.39    5.70    6.44    6.87    6.34    3.21    1.99    1.72    1.28    1.25
 1992 202    38    30     1    60.7    58.6     2.1   38.89   69.21    0.01    0.00    0.00   38.89   49.71    0.00    0.00    2.09     4.5     6.0    6.45    6.33    3.20    1.94    1.67    1.24    1.21    0.15    0.15    0.15    0.12    0.11    0.11    0.09    0.09    0.07    0.07    2.25    4.65    6.13    6.57    6.44    3.31    2.03    1.76    1.31    1.28
 1992 203    39    30     1    59.9    57.8     2.2   39.82   70.08    0.01    0.00    0.00   39.82   51.42    0.00    0.00    1.87     3.7     4.8    5.90    6.45    3.57    2.18    1.78    1.30    1.28    0.18    0.16    0.16    0.12    0.12    0.12    0.09    0.09    0.07    0.07    2.05    3.87    4.99    6.02    6.56    3.68    2.26    1.87    1.37    1.35
 1992 204    40    30     1    56.5    54.4     2.2   40.76   71.01    0.01    0.00    0.00   40.76   55.76    0.00    0.00    1.53     2.7     3.5    5.02    6.33    3.59    2.21    1.82    1.33    1.31    0.17    0.16    0.16    0.12    0.12    0.12    0.09    0.09    0.07    0.07    1.70    2.87    3.69    5.14    6.46    3.72    2.30    1.91    1.39    1.37
 1992 205    41    30     1    52.5    50.3     2.1   41.69   71.96    0.01    0.00    0.00   41.69   60.72    0.00    0.00    0.72     1.6     2.4    3.98    6.20    3.67    2.24    1.86    1.35    1.33    0.16    0.16    0.16    0.12    0.12    0.13    0.09    0.09    0.07    0.07    0.88    1.74    2.57    4.10    6.32    3.80    2.33    1.95    1.42    1.40
 1992 206    42    30     1    49.4    47.2     2.2   42.62   72.85    0.01    0.00    0.00   42.62   64.75    0.00    0.00    0.32     0.8     1.3    2.91    5.98    3.86    2.37    1.92    1.39    1.36    0.18    0.16    0.16    0.12    0.12    0.13    0.09    0.09    0.07    0.07    0.50    0.95    1.51    3.04    6.10    3.99    2.46    2.01    1.46    1.43
 1992 207    43    30     1    47.0    44.7     2.3   43.56   73.71    0.01    0.00    0.00   43.56   68.08    0.00    0.00    0.21     0.4     0.6    1.82    5.44    4.14    2.59    2.02    1.43    1.40    0.20    0.18    0.18    0.12    0.13    0.13    0.09    0.09    0.07    0.07    0.41    0.53    0.75    1.94    5.57    4.27    2.69    2.11    1.50    1.47
 1992 208    44    30     1    45.7    43.3     2.3   44.53   74.60    0.02    0.00    0.00   44.53   70.16    0.22    0.00    0.27     0.3     0.3    1.08    4.42    4.08    2.90    2.20    1.49    1.43    0.21    0.19    0.19    0.13    0.13    0.13    0.09    0.09    0.08    0.07    0.47    0.47    0.52    1.20    4.56    4.22    3.00    2.30    1.57    1.51
 1992 209    45    30     1    45.2    42.9     2.3   45.52   75.64    0.02    0.00    0.00   45.52   71.55    0.22    0.00    0.21     0.3     0.4    0.72    3.87    4.17    3.12    2.33    1.54    1.47    0.18    0.17    0.17    0.12    0.13    0.13    0.09    0.09    0.08    0.08    0.39    0.46    0.55    0.84    4.01    4.30    3.21    2.42    1.62    1.54
 1992 210    46    30     1    44.1    41.7     2.4   46.50   76.50    0.05    0.00    0.00   46.50   72.81    1.07    0.00    0.25     0.3     0.3    0.47    3.04    3.76    3.26    2.53    1.63    1.52    0.20    0.18    0.18    0.13    0.14    0.13    0.09    0.09    0.08    0.08    0.45    0.47    0.47    0.60    3.17    3.89    3.35    2.63    1.72    1.60
 1992 211    47    60     2    58.7    41.4    17.3   47.47   77.49    0.06    0.00    0.00   47.47   73.83    1.31    0.00    0.34     0.3     0.3    0.37    2.72    3.52    3.30    2.63    1.69    1.55   25.08    0.17    0.17    0.13    0.14    0.13    0.09    0.09    0.08    0.08   25.42    0.50    0.50    0.49    2.85    3.65    3.39    2.72    1.77    1.64
 1992 212    48    60     2    56.8    44.1    12.7   48.42   81.26    0.06    0.00    0.00   48.42   84.06    1.31    0.00    4.96     0.3     0.3    0.33    2.60    3.38    3.33    2.66    1.71    1.58   17.38    0.16    0.16    0.12    0.12    0.13    0.09    0.09    0.08    0.08   22.35    0.49    0.49    0.45    2.72    3.51    3.43    2.76    1.80    1.67
 1992 213    49    60     2    52.4    44.3     8.1   49.37   84.16    0.06    0.00    0.00   49.37   93.13    1.31    0.00    5.16     0.3     0.3    0.32    2.48    3.25    3.37    2.70    1.74    1.61    9.86    0.16    0.16    0.12    0.12    0.13    0.09    0.09    0.08    0.08   15.02    0.49    0.48    0.45    2.59    3.38    3.46    2.79    1.83    1.69
 1992 214    50    60     2    49.0    43.6     5.4   50.31   86.27    0.07    0.00    0.00   50.31   99.41    1.31    0.00    3.89     0.3     0.3    0.32    2.37    3.13    3.40    2.74    1.77    1.64    5.33    0.15    0.15    0.12    0.11    0.12    0.09    0.09    0.08    0.08    9.23    0.48    0.48    0.44    2.48    3.25    3.50    2.83    1.85    1.72
 1992 215    51    60     2    47.0    43.1     4.0   51.25   87.93    0.07    0.00    0.00   51.25  103.29    1.31    0.00    2.84     0.3     0.3    0.32    2.26    3.01    3.44    2.77    1.80    1.66    2.98    0.14    0.14    0.12    0.11    0.12    0.09    0.09    0.08    0.09    5.82    0.46    0.46    0.44    2.37    3.12    3.53    2.87    1.88    1.75
 1992 216    52    60     2    46.0    42.8     3.2   52.17   89.34    0.07    0.00    0.00   52.17  105.69    1.31    0.00    1.33     0.6     0.6    0.38    2.16    2.89    3.48    2.81    1.83    1.69    1.77    0.13    0.13    0.12    0.11    0.11    0.09    0.09    0.08    0.09    3.10    0.69    0.69    0.50    2.27    3.00    3.57    2.90    1.91    1.78
 1992 217    53    60     2    44.9    42.0     2.9   53.13   90.39    0.07    0.00    0.00   53.13  107.98    1.31    0.00    0.57     0.3     0.3    0.35    2.02    2.82    3.53    2.86    1.87    1.72    0.75    0.37    0.15    0.12    0.11    0.11    0.09    0.09    0.08    0.09    1.32    0.67    0.46    0.47    2.13    2.93    3.62    2.95    1.96    1.81
 1992 218    54    60     2    44.3    41.4     2.9   54.05   91.37    0.08    0.00    0.00   54.05  109.03    1.97    0.00    0.40     0.3     0.3    0.29    1.64    2.49    3.39    2.98    1.96    1.78    0.49    0.36    0.30    0.13    0.12    0.12    0.09    0.09    0.09    0.09    0.90    0.70    0.58    0.41    1.76    2.61    3.49    3.08    2.05    1.86
 1992 219    55    60     2    44.4    41.7     2.7   54.98   92.50    0.08    0.00    0.00   54.98  109.75    2.12    0.00    0.46     0.4     0.4    0.31    1.52    2.34    3.39    3.04    2.00    1.81    0.36    0.29    0.28    0.14    0.12    0.12    0.09    0.09    0.09    0.09    0.81    0.68    0.65    0.45    1.64    2.46    3.48    3.13    2.09    1.90
 1992 220    56    60     2    44.5    41.9     2.6   55.93   93.66    0.08    0.00    0.00   55.93  110.64    2.12    0.00    0.25     0.3     0.4    0.33    1.39    2.26    3.43    3.13    2.05    1.85    0.26    0.23    0.23    0.14    0.12    0.12    0.09    0.09    0.09    0.09    0.51    0.55    0.68    0.47    1.51    2.38    3.52    3.23    2.14    1.94
 1992 221    57    60     2    43.5    40.9     2.6   56.87   94.53    0.09    0.00    0.00   56.87  111.38    3.28    0.00    0.30     0.3     0.3    0.28    1.11    1.88    3.07    3.11    2.13    1.93    0.26    0.23    0.24    0.15    0.13    0.13    0.09    0.09    0.09    0.09    0.56    0.53    0.54    0.43    1.24    2.01    3.17    3.20    2.22    2.02
 1992 222    58    60     2    43.6    41.0     2.6   57.81   95.54    0.10    0.00    0.00   57.81  111.89    3.61    0.00    0.35     0.3     0.3    0.31    1.03    1.73    2.99    3.13    2.18    1.97    0.22    0.20    0.21    0.14    0.14    0.13    0.09    0.09    0.09    0.09    0.57    0.54    0.55    0.45    1.16    1.86    3.08    3.23    2.27    2.06
 1992 223    59    60     2    43.9    41.4     2.5   58.78   96.59    0.10    0.00    0.00   58.78  112.53    3.61    0.00    0.36     0.3     0.4    0.32    1.01    1.67    3.03    3.17    2.21    2.00    0.19    0.18    0.18    0.13    0.13    0.13    0.09    0.09    0.09    0.09    0.55    0.53    0.53    0.45    1.15    1.80    3.12    3.26    2.30    2.09
 1992 224    60    60     2    44.2    41.8     2.4   59.74   97.61    0.10    0.00    0.00   59.74  113.20    3.61    0.00    0.34     0.3     0.3    0.31    1.01    1.62    3.07    3.21    2.24    2.03    0.17    0.17    0.17    0.13    0.12    0.12    0.09    0.09    0.09    0.09    0.51    0.50    0.51    0.44    1.13    1.74    3.16    3.30    2.32    2.12
 1992 225    61    60     2    44.5    42.1     2.4   60.66   98.56    0.11    0.00    0.00   60.66  113.82    3.61    0.00    0.33     0.3     0.3    0.31    1.00    1.57    3.10    3.24    2.27    2.06    0.16    0.16    0.16    0.13    0.12    0.12    0.09    0.09    0.09    0.09    0.50    0.49    0.49    0.44    1.11    1.69    3.20    3.34    2.35    2.14
 1992 226    62    60     2    44.9    42.5     2.4   61.59   99.51    0.11    0.00    0.00   61.59  114.40    3.61    0.00    0.19     0.3     0.4    0.34    0.98    1.52    3.14    3.28    2.30    2.08    0.16    0.15    0.15    0.13    0.11    0.11    0.09    0.09    0.09    0.09    0.35    0.47    0.54    0.46    1.10    1.63    3.23    3.37    2.38    2.17
 1992 227    63    60     2    45.0    42.5     2.4   62.52  100.41    0.12    0.00    0.00   62.52  115.01    3.82    0.00    0.22     0.3     0.3    0.31    0.93    1.45    3.09    3.30    2.33    2.12    0.19    0.17    0.17    0.12    0.11    0.11    0.09    0.09    0.09    0.09    0.40    0.45    0.46    0.43    1.04    1.57    3.18    3.40    2.42    2.21
 1992 228    64    60     2    45.4    43.0     2.4   63.42  101.31    0.12    0.00    0.00   63.42  115.44    3.82    0.00    0.29     0.3     0.3    0.31    0.92    1.41    3.12    3.34    2.36    2.15    0.18    0.16    0.16    0.13    0.11    0.11    0.09    0.09    0.09    0.09    0.47    0.48    0.48    0.43    1.03    1.52    3.22    3.43    2.45    2.23
 1992 229    65    60     2    45.8    43.4     2.4   64.32  102.21    0.13    0.00    0.00   64.32  115.95    3.82    0.00    0.33     0.3     0.3    0.30    0.90    1.36    3.16    3.37    2.39    2.17    0.17    0.16    0.16    0.13    0.11    0.11    0.09    0.09    0.09    0.09    0.50    0.48    0.48    0.43    1.02    1.47    3.25    3.47    2.47    2.26
 1992 230    66    60     2    46.1    43.7     2.4   65.21  103.10    0.13    0.00    0.00   65.21  116.48    3.82    0.00    0.24     0.3     0.4    0.32    0.89    1.32    3.20    3.41    2.41    2.20    0.17    0.16    0.16    0.13    0.11    0.11    0.09    0.09    0.09    0.09    0.40    0.49    0.52    0.44    1.00    1.43    3.29    3.50    2.50    2.29
 1992 231    67    60     2    46.4    44.0     2.4   66.09  103.96    0.13    0.00    0.00   66.09  117.01    3.88    0.00    0.14     0.3     0.3    0.32    0.86    1.30    3.21    3.46    2.46    2.23    0.19    0.16    0.16    0.13    0.11    0.11    0.09    0.09    0.09    0.09    0.33    0.41    0.50    0.44    0.98    1.42    3.30    3.56    2.54    2.32
 1992 232    68    60     2    46.8    44.3     2.5   66.98  104.74    0.14    0.00    0.00   66.98  117.43    3.95    0.00    0.14     0.3     0.3    0.29    0.79    1.24    3.15    3.54    2.52    2.28    0.20    0.18    0.18    0.14    0.13    0.12    0.09    0.09    0.09    0.09    0.35    0.44    0.47    0.43    0.91    1.36    3.24    3.64    2.61    2.37
 1992 233    69    60     2    45.8    43.2     2.6   67.87  105.55    0.15    0.00    0.00   67.87  117.77    5.46    0.00    0.18     0.3     0.3    0.28    0.67    1.06    2.65    3.29    2.52    2.33    0.22    0.20    0.20    0.14    0.14    0.13    0.10    0.10    0.09    0.09    0.40    0.47    0.47    0.42    0.81    1.19    2.75    3.39    2.61    2.42
 1992 234    70    60     2    46.1    43.5     2.6   68.76  106.48    0.16    0.00    0.00   68.76  118.06    5.81    0.00    0.27     0.3     0.3    0.31    0.65    1.00    2.56    3.25    2.55    2.37    0.20    0.18    0.18    0.14    0.14    0.13    0.10    0.10    0.09    0.09    0.47    0.51    0.51    0.44    0.79    1.14    2.65    3.34    2.64    2.46
 1992 235    71    60     2    46.5    44.0     2.5   69.65  107.42    0.16    0.00    0.00   69.65  118.49    5.81    0.00    0.34     0.3     0.3    0.31    0.66    0.99    2.60    3.28    2.57    2.40    0.18    0.17    0.17    0.13    0.14    0.12    0.10    0.10    0.09    0.09    0.52    0.50    0.50    0.44    0.79    1.12    2.69    3.38    2.66    2.49
 1992 236    72    60     2    46.9    44.4     2.5   70.55  108.36    0.17    0.00    0.00   70.55  118.97    5.81    0.00    0.21     0.3     0.4    0.33    0.67    0.98    2.63    3.32    2.60    2.42    0.17    0.17    0.17    0.13    0.13    0.12    0.10    0.09    0.09    0.09    0.38    0.49    0.54    0.45    0.80    1.10    2.73    3.41    2.69    2.51
 1992 237    73    60     2    47.1    44.6     2.5   71.45  109.25    0.17    0.00    0.00   71.45  119.45    6.10    0.00    0.24     0.3     0.3    0.30    0.66    0.96    2.57    3.30    2.63    2.46    0.19    0.17    0.17    0.13    0.12    0.12    0.10    0.09    0.09    0.09    0.43    0.47    0.47    0.43    0.78    1.07    2.66    3.40    2.71    2.55
 1992 238    74    60     2    47.6    45.1     2.5   72.37  110.21    0.18    0.00    0.00   72.37  119.82    6.10    0.00    0.21     0.3     0.4    0.33    0.67    0.96    2.60    3.34    2.65    2.49    0.18    0.17    0.17    0.13    0.12    0.11    0.09    0.09    0.09    0.09    0.40    0.48    0.53    0.45    0.79    1.07    2.70    3.43    2.74    2.57
 1992 239    75    60     2    48.0    45.5     2.5   73.30  111.11    0.18    0.00    0.00   73.30  120.29    6.16    0.00    0.17     0.3     0.3    0.32    0.66    0.95    2.61    3.39    2.69    2.52    0.20    0.18    0.18    0.13    0.12    0.11    0.09    0.09    0.09    0.09    0.37    0.45    0.49    0.45    0.79    1.07    2.70    3.48    2.78    2.61
 1992 240    76    60     2    48.5    45.9     2.6   74.25  111.99    0.19    0.00    0.00   74.25  120.66    6.24    0.00    0.16     0.3     0.3    0.31    0.64    0.93    2.55    3.43    2.75    2.58    0.21    0.19    0.20    0.13    0.13    0.12    0.09    0.09    0.09    0.09    0.37    0.45    0.49    0.44    0.77    1.05    2.65    3.53    2.83    2.66
 1992 241    77    60     2    47.3    44.7     2.6   75.20  112.87    0.20    0.00    0.00   75.20  120.98    8.00    0.00    0.21     0.3     0.3    0.28    0.56    0.81    2.15    3.09    2.67    2.60    0.22    0.20    0.20    0.14    0.14    0.13    0.10    0.09    0.09    0.09    0.43    0.48    0.49    0.42    0.70    0.94    2.24    3.18    2.75    2.68
 1992 242    78    60     2    47.6    45.0     2.6   76.15  113.89    0.21    0.00    0.00   76.15  121.26    8.41    0.00    0.31     0.3     0.3    0.31    0.56    0.79    2.08    3.02    2.67    2.63    0.19    0.18    0.18    0.13    0.14    0.13    0.10    0.09    0.09    0.09    0.50    0.52    0.52    0.44    0.70    0.92    2.17    3.12    2.76    2.72
 1992 243    79    60     2    48.1    45.6     2.5   77.10  114.89    0.22    0.00    0.00   77.10  121.71    8.41    0.00    0.35     0.3     0.3    0.31    0.58    0.80    2.12    3.06    2.70    2.66    0.18    0.17    0.17    0.13    0.14    0.12    0.09    0.09    0.09    0.09    0.52    0.50    0.51    0.44    0.71    0.92    2.21    3.15    2.79    2.74
 1992 244    80    60     2    48.5    46.1     2.5   78.03  115.86    0.22    0.00    0.00   78.03  122.18    8.41    0.00    0.22     0.3     0.4    0.33    0.60    0.80    2.16    3.10    2.73    2.68    0.17    0.17    0.17    0.13    0.13    0.12    0.09    0.09    0.09    0.09    0.38    0.49    0.54    0.45    0.73    0.92    2.25    3.19    2.81    2.77
 1992 245    81    60     2    48.7    46.3     2.5   78.95  116.77    0.23    0.00    0.00   78.95  122.65    8.65    0.00    0.25     0.3     0.3    0.31    0.60    0.80    2.13    3.09    2.74    2.71    0.19    0.17    0.17    0.13    0.12    0.12    0.09    0.09    0.09    0.09    0.44    0.47    0.47    0.43    0.72    0.92    2.23    3.18    2.83    2.80
[...]
 2018 245    81    60     2    49.6    47.3     2.3   72.76  124.13    0.49    0.00    0.00   72.76  123.11    0.84    0.00    0.34     0.3     0.3    0.31    1.03    1.55    3.19    3.30    2.45    2.38    0.18    0.17    0.17    0.13    0.12    0.12    0.09    0.09    0.08    0.07    0.51    0.50    0.50    0.44    1.15    1.67    3.28    3.40    2.53    2.45
 2018 246    82    60     2    49.9    47.7     2.2   73.68  125.07    0.49    0.00    0.00   73.68  123.70    0.84    0.00    0.34     0.3     0.3    0.31    1.01    1.50    3.22    3.34    2.47    2.41    0.17    0.17    0.17    0.13    0.12    0.11    0.09    0.09    0.08    0.07    0.50    0.49    0.49    0.44    1.13    1.61    3.32    3.43    2.56    2.48
 2018 247    83    60     2    50.2    48.0     2.2   74.59  126.01    0.49    0.00    0.00   74.59  124.28    0.84    0.00    0.33     0.3     0.3    0.31    1.00    1.45    3.26    3.37    2.50    2.44    0.16    0.16    0.16    0.13    0.11    0.11    0.09    0.09    0.08    0.07    0.50    0.48    0.48    0.44    1.11    1.56    3.35    3.47    2.58    2.50
 2018 248    84    60     2    50.5    48.4     2.2   75.49  126.95    0.49    0.00    0.00   75.49  124.84    0.84    0.00    0.33     0.3     0.3    0.31    0.98    1.41    3.30    3.41    2.53    2.47    0.16    0.14    0.15    0.13    0.11    0.11    0.09    0.09    0.08    0.07    0.49    0.46    0.47    0.44    1.09    1.52    3.39    3.50    2.61    2.53
 2018 249    85    60     2    50.9    48.7     2.1   76.39  127.87    0.49    0.00    0.00   76.39  125.39    0.84    0.00    0.33     0.3     0.3    0.31    0.96    1.37    3.33    3.45    2.55    2.49    0.15    0.13    0.13    0.13    0.11    0.11    0.09    0.09    0.09    0.07    0.48    0.45    0.45    0.43    1.08    1.48    3.43    3.54    2.64    2.56
 2018 250    86    60     2    51.2    49.1     2.1   77.28  128.78    0.49    0.00    0.00   77.28  125.93    0.84    0.00    0.33     0.3     0.3    0.31    0.95    1.33    3.37    3.48    2.58    2.52    0.15    0.12    0.13    0.12    0.11    0.11    0.09    0.09    0.09    0.07    0.48    0.43    0.43    0.43    1.06    1.44    3.46    3.57    2.67    2.59
 2018 251    87    60     2    51.6    49.5     2.1   78.16  129.68    0.49    0.00    0.00   78.16  126.44    0.84    0.00    0.32     0.3     0.3    0.31    0.93    1.29    3.41    3.52    2.61    2.55    0.14    0.12    0.12    0.12    0.11    0.11    0.09    0.09    0.09    0.07    0.47    0.42    0.42    0.43    1.05    1.40    3.50    3.61    2.69    2.62
 2018 252    88    60     2    52.0    49.9     2.1   79.02  130.58    0.49    0.00    0.00   79.02  126.94    0.84    0.00    0.32     0.3     0.3    0.31    0.92    1.26    3.45    3.55    2.63    2.58    0.14    0.11    0.11    0.12    0.11    0.11    0.09    0.09    0.09    0.07    0.46    0.41    0.41    0.42    1.03    1.37    3.54    3.65    2.72    2.64
 2018 253    89    60     2    52.3    50.3     2.0   79.87  131.46    0.49    0.00    0.00   79.87  127.43    0.84    0.00    0.32     0.3     0.3    0.31    0.91    1.23    3.48    3.59    2.66    2.60    0.14    0.10    0.11    0.11    0.11    0.11    0.09    0.09    0.09    0.07    0.46    0.40    0.40    0.42    1.02    1.34    3.57    3.68    2.75    2.67
 2018 254    90    60     2    52.7    50.7     2.0   80.70  132.33    0.49    0.00    0.00   80.70  127.90    0.84    0.00    0.32     0.3     0.3    0.30    0.89    1.20    3.52    3.63    2.69    2.63    0.13    0.10    0.10    0.10    0.10    0.11    0.09    0.09    0.09    0.07    0.45    0.40    0.40    0.41    1.00    1.31    3.61    3.72    2.77    2.70
 2018 255    91    60     2    53.0    51.1     2.0   81.52  133.18    0.49    0.00    0.00   81.52  128.35    0.84    0.00    0.31     0.3     0.3    0.30    0.88    1.17    3.56    3.67    2.72    2.66    0.13    0.10    0.10    0.10    0.10    0.10    0.09    0.09    0.09    0.07    0.44    0.39    0.39    0.39    0.98    1.27    3.65    3.76    2.80    2.73
 2018 256    92    60     2    53.4    51.5     1.9   82.32  134.02    0.49    0.00    0.00   82.32  128.78    0.84    0.00    0.32     0.3     0.3    0.29    0.86    1.13    3.60    3.71    2.75    2.69    0.12    0.09    0.09    0.09    0.09    0.10    0.09    0.09    0.09    0.07    0.44    0.38    0.39    0.38    0.96    1.23    3.69    3.80    2.83    2.76
 2018 257    93    60     2    53.8    51.9     1.9   83.10  134.84    0.49    0.00    0.00   83.10  129.18    0.84    0.00    0.35     0.3     0.3    0.29    0.85    1.10    3.64    3.75    2.78    2.72    0.11    0.09    0.09    0.08    0.09    0.10    0.09    0.09    0.08    0.07    0.46    0.38    0.38    0.37    0.94    1.20    3.73    3.83    2.86    2.79
 2018 258    94    60     2    54.2    52.3     1.8   83.87  135.65    0.49    0.00    0.00   83.87  129.54    0.84    0.00    0.17     0.3     0.4    0.30    0.83    1.07    3.68    3.78    2.81    2.75    0.10    0.09    0.09    0.07    0.08    0.09    0.09    0.09    0.08    0.07    0.28    0.41    0.49    0.37    0.91    1.16    3.77    3.87    2.89    2.81
 2018 259    95    60     2    54.5    52.6     1.9   84.71  136.42    0.49    0.00    0.00   84.71  130.03    0.84    0.00    0.12     0.2     0.3    0.35    0.81    1.04    3.72    3.82    2.83    2.78    0.15    0.12    0.12    0.07    0.08    0.09    0.09    0.09    0.08    0.07    0.26    0.36    0.40    0.42    0.89    1.12    3.80    3.91    2.92    2.84
 2018 260    96    60     2    55.0    53.0     2.0   85.59  137.20    0.49    0.00    0.00   85.59  130.43    0.84    0.00    0.15     0.2     0.3    0.30    0.82    1.01    3.75    3.86    2.86    2.80    0.17    0.16    0.15    0.10    0.07    0.08    0.09    0.09    0.08    0.07    0.33    0.40    0.41    0.39    0.89    1.09    3.84    3.95    2.95    2.87
 2018 261    97    60     2    55.6    53.5     2.0   86.48  138.07    0.49    0.00    0.00   86.48  130.72    0.84    0.00    0.23     0.3     0.3    0.30    0.80    0.98    3.79    3.90    2.89    2.83    0.17    0.16    0.16    0.11    0.07    0.08    0.09    0.09    0.08    0.07    0.40    0.46    0.47    0.41    0.88    1.06    3.88    3.98    2.98    2.90
 2018 262    98    60     2    56.1    54.1     2.0   87.37  138.98    0.49    0.00    0.00   87.37  131.12    0.84    0.00    0.32     0.3     0.3    0.30    0.78    0.96    3.83    3.93    2.93    2.86    0.17    0.16    0.16    0.12    0.08    0.07    0.09    0.09    0.08    0.07    0.48    0.48    0.48    0.42    0.86    1.03    3.92    4.02    3.00    2.93
 2018 263    99    60     2    56.5    54.5     2.0   88.26  139.88    0.49    0.00    0.00   88.26  131.57    0.84    0.00    0.33     0.3     0.3    0.30    0.76    0.93    3.87    3.97    2.96    2.89    0.16    0.16    0.16    0.12    0.07    0.07    0.09    0.09    0.07    0.07    0.49    0.48    0.48    0.42    0.84    1.00    3.96    4.06    3.03    2.96
 2018 264   100    60     2    56.9    54.9     2.0   89.14  140.78    0.49    0.00    0.00   89.14  132.03    0.84    0.00    0.33     0.3     0.3    0.30    0.74    0.90    3.91    4.01    2.99    2.92    0.16    0.16    0.16    0.12    0.07    0.07    0.09    0.09    0.07    0.07    0.49    0.48    0.48    0.43    0.82    0.97    4.00    4.10    3.06    2.99
 2018 265   101    60     2    57.3    55.4     2.0   90.01  141.67    0.49    0.00    0.00   90.01  132.47    0.84    0.00    0.33     0.3     0.3    0.31    0.73    0.88    3.95    4.05    3.02    2.95    0.15    0.15    0.16    0.12    0.07    0.06    0.09    0.09    0.07    0.07    0.48    0.48    0.48    0.43    0.80    0.95    4.03    4.14    3.09    3.02
 2018 266   102    60     2    57.8    55.8     1.9   90.87  142.56    0.49    0.00    0.00   90.87  132.90    0.84    0.00    0.32     0.3     0.3    0.31    0.71    0.86    3.99    4.09    3.05    2.98    0.14    0.15    0.15    0.12    0.07    0.06    0.09    0.09    0.07    0.07    0.47    0.47    0.47    0.43    0.78    0.93    4.07    4.18    3.12    3.05
 2018 267   103    60     2    58.2    56.3     1.9   91.70  143.44    0.49    0.00    0.00   91.70  133.32    0.84    0.00    0.32     0.3     0.3    0.31    0.70    0.85    4.03    4.13    3.08    3.01    0.14    0.14    0.14    0.12    0.07    0.06    0.09    0.09    0.07    0.07    0.46    0.45    0.46    0.43    0.77    0.91    4.11    4.22    3.15    3.07
 2018 268   104    60     2    58.6    56.7     1.8   92.52  144.29    0.49    0.00    0.00   92.52  133.72    0.84    0.00    0.32     0.3     0.3    0.31    0.70    0.84    4.07    4.17    3.11    3.04    0.13    0.13    0.13    0.11    0.06    0.06    0.09    0.09    0.07    0.07    0.44    0.44    0.44    0.42    0.76    0.89    4.15    4.26    3.18    3.10
 2018 269   105    60     2    59.0    57.2     1.8   93.31  145.14    0.49    0.00    0.00   93.31  134.07    0.84    0.00    0.33     0.3     0.3    0.30    0.69    0.83    4.11    4.21    3.14    3.07    0.12    0.12    0.12    0.10    0.06    0.05    0.09    0.09    0.07    0.07    0.45    0.43    0.43    0.41    0.75    0.88    4.19    4.30    3.21    3.13
 2018 270   106    60     2    59.5    57.7     1.7   94.08  145.95    0.49    0.00    0.00   94.08  134.39    0.84    0.00    0.38     0.3     0.3    0.30    0.69    0.82    4.15    4.25    3.17    3.10    0.11    0.11    0.11    0.09    0.05    0.05    0.09    0.09    0.07    0.07    0.48    0.41    0.42    0.39    0.74    0.87    4.23    4.34    3.24    3.16
 2018 271   107    60     2    59.9    58.2     1.7   94.82  146.75    0.49    0.00    0.00   94.82  134.67    0.84    0.00    0.43     0.3     0.3    0.29    0.69    0.81    4.19    4.29    3.20    3.13    0.10    0.10    0.10    0.08    0.05    0.05    0.09    0.09    0.07    0.07    0.53    0.40    0.41    0.37    0.74    0.86    4.27    4.38    3.27    3.19
 2018 272   108    60     2    60.4    58.8     1.6   95.55  147.52    0.49    0.00    0.00   95.55  134.92    0.84    0.00    0.48     0.3     0.3    0.29    0.69    0.81    4.23    4.33    3.23    3.16    0.09    0.09    0.10    0.07    0.05    0.05    0.09    0.09    0.07    0.07    0.57    0.39    0.40    0.35    0.74    0.86    4.31    4.42    3.30    3.22
 2018 273   109    60     2    60.9    59.3     1.6   96.25  148.27    0.49    0.00    0.00   96.25  135.13    0.84    0.00    0.53     0.3     0.3    0.28    0.69    0.81    4.27    4.37    3.26    3.19    0.08    0.08    0.08    0.06    0.05    0.05    0.09    0.09    0.07    0.07    0.61    0.38    0.38    0.34    0.74    0.86    4.35    4.46    3.33    3.25
 2018 274   110    60     2    61.4    59.8     1.6   96.93  148.99    0.49    0.00    0.00   96.93  135.31    0.84    0.00    0.57     0.3     0.3    0.28    0.69    0.81    4.31    4.41    3.29    3.22    0.08    0.07    0.07    0.05    0.05    0.05    0.09    0.09    0.07    0.07    0.65    0.36    0.36    0.34    0.74    0.86    4.39    4.50    3.36    3.28
 2018 275   111    60     2    61.7    60.2     1.6   97.64  149.70    0.49    0.00    0.00   97.64  135.65    0.84    0.00    0.29     0.3     0.3    0.28    0.70    0.81    4.35    4.45    3.32    3.25    0.12    0.06    0.07    0.05    0.05    0.04    0.09    0.09    0.07    0.07    0.41    0.35    0.35    0.33    0.75    0.86    4.43    4.54    3.39    3.31
 2018 276   112    60     2    62.3    60.8     1.5   98.32  150.40    0.49    0.00    0.00   98.32  135.78    0.84    0.00    0.35     0.3     0.3    0.29    0.71    0.82    4.39    4.49    3.35    3.28    0.11    0.06    0.06    0.05    0.04    0.04    0.09    0.09    0.07    0.07    0.46    0.34    0.34    0.34    0.75    0.86    4.47    4.58    3.42    3.34
 2018 277   113    60     2    62.8    61.3     1.5   98.98  151.09    0.49    0.00    0.00   98.98  135.89    0.84    0.00    0.40     0.3     0.3    0.29    0.71    0.83    4.43    4.53    3.38    3.31    0.10    0.05    0.06    0.05    0.04    0.04    0.09    0.09    0.07    0.07    0.50    0.33    0.34    0.34    0.76    0.87    4.52    4.62    3.45    3.37
 2018 278   114    60     2    63.4    61.9     1.5   99.64  151.76    0.49    0.00    0.00   99.64  135.97    0.84    0.00    0.45     0.3     0.3    0.30    0.72    0.83    4.47    4.57    3.41    3.34    0.09    0.05    0.05    0.04    0.04    0.04    0.09    0.09    0.07    0.07    0.54    0.34    0.33    0.35    0.76    0.88    4.56    4.66    3.48    3.40
 2018 279   115    60     2    64.0    62.5     1.5  100.29  152.42    0.49    0.00    0.00  100.29  136.03    0.84    0.00    0.49     0.3     0.3    0.31    0.73    0.84    4.51    4.61    3.44    3.37    0.08    0.05    0.05    0.04    0.04    0.04    0.09    0.09    0.07    0.07    0.58    0.35    0.34    0.36    0.77    0.88    4.59    4.70    3.51    3.43
 2018 280   116    60     2    64.6    63.1     1.5  100.92  153.07    0.49    0.00    0.00  100.92  136.07    0.84    0.00    0.53     0.3     0.3    0.32    0.74    0.85    4.55    4.65    3.47    3.39    0.08    0.04    0.05    0.04    0.04    0.04    0.09    0.09    0.07    0.07    0.61    0.36    0.35    0.37    0.78    0.89    4.63    4.74    3.54    3.46
 2018 281   117    60     2    65.2    63.7     1.5  101.56  153.72    0.49    0.00    0.00  101.56  136.10    0.84    0.00    0.57     0.3     0.3    0.34    0.75    0.86    4.59    4.69    3.50    3.42    0.07    0.04    0.04    0.04    0.04    0.04    0.09    0.09    0.07    0.07    0.64    0.38    0.36    0.38    0.79    0.90    4.67    4.78    3.57    3.49
 2018 282   118    60     2    65.8    64.3     1.5  102.19  154.36    0.49    0.00    0.00  102.19  136.12    0.84    0.00    0.60     0.4     0.3    0.35    0.76    0.87    4.63    4.73    3.53    3.45    0.07    0.04    0.04    0.04    0.04    0.04    0.09    0.09    0.07    0.07    0.66    0.39    0.37    0.39    0.80    0.91    4.71    4.81    3.60    3.52
 2018 283   119    60     2    66.4    65.0     1.4  102.82  154.99    0.49    0.00    0.00  102.82  136.13    0.84    0.00    0.62     0.4     0.4    0.37    0.77    0.88    4.67    4.77    3.56    3.48    0.06    0.04    0.04    0.04    0.04    0.04    0.09    0.09    0.07    0.07    0.69    0.41    0.39    0.41    0.81    0.92    4.76    4.85    3.63    3.55
 2018 284   120    60     2    67.0    65.6     1.4  103.45  155.63    0.49    0.00    0.00  103.45  136.14    0.84    0.00    0.65     0.4     0.4    0.38    0.78    0.89    4.71    4.81    3.59    3.51    0.06    0.04    0.04    0.04    0.04    0.04    0.09    0.09    0.07    0.07    0.71    0.43    0.41    0.42    0.82    0.93    4.80    4.90    3.66    3.58
 2018 285   121    60     2    67.7    66.2     1.4  104.08  156.27    0.49    0.00    0.00  104.08  136.15    0.84    0.00    0.67     0.4     0.4    0.40    0.79    0.90    4.75    4.85    3.62    3.54    0.06    0.04    0.04    0.04    0.04    0.04    0.09    0.09    0.07    0.07    0.73    0.44    0.43    0.44    0.83    0.94    4.84    4.94    3.69    3.61
 2018 286   122    60     2    68.3    66.8     1.4  104.71  156.90    0.49    0.00    0.00  104.71  136.15    0.84    0.00    0.70     0.4     0.4    0.41    0.81    0.91    4.79    4.89    3.65    3.57    0.06    0.04    0.04    0.04    0.04    0.04    0.09    0.09    0.07    0.07    0.76    0.46    0.45    0.45    0.84    0.95    4.88    4.98    3.72    3.64
 2018 287   123    60     2    68.9    67.5     1.4  105.35  157.53    0.49    0.00    0.00  105.35  136.16    0.84    0.00    0.72     0.4     0.4    0.43    0.82    0.93    4.83    4.93    3.68    3.60    0.06    0.04    0.04    0.04    0.04    0.04    0.09    0.09    0.07    0.07    0.78    0.48    0.47    0.47    0.86    0.97    4.92    5.02    3.75    3.67
 2018 288   124    60     2    69.5    68.1     1.4  105.98  158.17    0.49    0.00    0.00  105.98  136.16    0.84    0.00    0.74     0.5     0.4    0.44    0.83    0.94    4.87    4.97    3.71    3.63    0.06    0.04    0.04    0.04    0.04    0.04    0.09    0.09    0.07    0.07    0.81    0.49    0.48    0.48    0.87    0.98    4.96    5.06    3.78    3.70
 2018 289   125    60     2    70.1    68.7     1.4  106.63  158.80    0.49    0.00    0.00  106.63  136.24    0.84    0.00    0.64     0.5     0.5    0.46    0.84    0.95    4.91    5.01    3.74    3.66    0.08    0.04    0.04    0.04    0.04    0.04    0.09    0.09    0.07    0.07    0.73    0.51    0.50    0.50    0.88    0.99    5.00    5.10    3.81    3.73
 2018 290   126    60     2    70.7    69.3     1.4  107.27  159.45    0.49    0.00    0.00  107.27  136.24    0.84    0.00    0.69     0.5     0.5    0.47    0.86    0.97    4.95    5.05    3.78    3.69    0.09    0.04    0.04    0.04    0.04    0.04    0.09    0.09    0.07    0.07    0.78    0.52    0.52    0.51    0.90    1.01    5.04    5.14    3.84    3.76
 2018 291   127    60     2    71.4    69.9     1.4  107.92  160.09    0.49    0.00    0.00  107.92  136.24    0.84    0.00    0.74     0.5     0.5    0.49    0.87    0.98    4.99    5.09    3.81    3.72    0.09    0.04    0.04    0.04    0.04    0.04    0.09    0.09    0.07    0.07    0.83    0.54    0.54    0.52    0.91    1.02    5.08    5.18    3.87    3.79
 2018 292   128    60     2    72.0    70.6     1.4  108.56  160.74    0.49    0.00    0.00  108.56  136.24    0.84    0.00    0.79     0.5     0.5    0.50    0.88    1.00    5.03    5.13    3.84    3.75    0.08    0.04    0.04    0.04    0.04    0.04    0.09    0.09    0.07    0.07    0.87    0.56    0.56    0.54    0.92    1.03    5.12    5.22    3.90    3.82
 2018 293   129    60     2    72.7    71.2     1.4  109.19  161.38    0.49    0.00    0.00  109.19  136.24    0.84    0.00    0.83     0.5     0.5    0.51    0.90    1.01    5.07    5.17    3.87    3.78    0.08    0.04    0.04    0.04    0.04    0.04    0.09    0.09    0.07    0.07    0.91    0.57    0.58    0.55    0.93    1.05    5.16    5.26    3.93    3.85
 2018 294   130    60     2    73.3    71.9     1.4  109.83  162.02    0.49    0.00    0.00  109.83  136.24    0.84    0.00    0.87     0.6     0.6    0.53    0.91    1.02    5.11    5.21    3.90    3.81    0.07    0.04    0.04    0.04    0.04    0.04    0.09    0.09    0.07    0.07    0.94    0.59    0.59    0.57    0.95    1.06    5.20    5.30    3.96    3.88
 2018 295   131    60     2    73.9    72.5     1.4  110.47  162.66    0.49    0.00    0.00  110.47  136.24    0.84    0.00    0.91     0.6     0.6    0.54    0.92    1.04    5.15    5.25    3.93    3.84    0.07    0.04    0.04    0.04    0.04    0.04    0.09    0.09    0.07    0.07    0.98    0.61    0.61    0.58    0.96    1.07    5.24    5.34    3.99    3.91
 2018 296   132    60     2    74.6    73.1     1.4  111.11  163.30    0.49    0.00    0.00  111.11  136.24    0.84    0.00    0.94     0.6     0.6    0.56    0.94    1.05    5.19    5.29    3.96    3.87    0.06    0.04    0.04    0.04    0.04    0.04    0.09    0.09    0.07    0.07    1.00    0.62    0.63    0.60    0.97    1.09    5.28    5.38    4.02    3.94
 2018 297   133    60     2    75.2    73.8     1.4  111.74  163.93    0.49    0.00    0.00  111.74  136.24    0.84    0.00    0.97     0.6     0.6    0.57    0.95    1.06    5.24    5.33    3.99    3.90    0.06    0.04    0.04    0.04    0.04    0.04    0.09    0.09    0.07    0.07    1.03    0.64    0.65    0.61    0.99    1.10    5.32    5.42    4.05    3.97
 2018 298   134    60     2    75.8    74.4     1.4  112.37  164.57    0.49    0.00    0.00  112.37  136.24    0.84    0.00    1.00     0.6     0.6    0.59    0.96    1.08    5.28    5.37    4.02    3.93    0.06    0.04    0.04    0.04    0.04    0.04    0.09    0.09    0.07    0.07    1.06    0.65    0.67    0.63    1.00    1.11    5.36    5.46    4.08    4.00
